/*--------------------------------*- C++ -*----------------------------------*\
  =========                 |
  \\      /  F ield         | OpenFOAM: The Open Source CFD Toolbox
   \\    /   O peration     | Website:  https://openfoam.org
    \\  /    A nd           | Version:  7
     \\/     M anipulation  |
\*---------------------------------------------------------------------------*/
FoamFile
{
    version     2.0;
    format      ascii;
    class       extendedFeatureEdgeMesh;
    location    "constant/extendedFeatureEdgeMesh";
    object      model.extendedFeatureEdgeMesh;
}
// * * * * * * * * * * * * * * * * * * * * * * * * * * * * * * * * * * * * * //

// points

142
(
(0.035037 0.066715 0)
(0.034393 0.054261 1)
(0.056258 0.032874 1)
(0.049733 0.032613 0)
(0.034899 0.065996 1)
(0.057766 0.040215 1)
(0.034349 0.05961 1)
(0.041787 0.037388 1)
(0.052064 0.053678 0)
(0.035799 0.068114 1)
(0.056695 0.046085 1)
(0.056307 0.047229 0)
(0.055863 0.048338 1)
(0.055363 0.049403 1)
(0.054809 0.050412 0)
(0.038422 0.040341 0)
(0.035643 0.068167 1)
(0.035487 0.068042 1)
(0.054201 0.051354 1)
(0.052828 0.052998 1)
(0.057772 0.037995 0)
(0.0578 0.039085 0)
(0.036438 0.043446 1)
(0.036048 0.044387 0)
(0.035701 0.045409 0)
(0.035397 0.046514 1)
(0.034319 0.056981 1)
(0.034398 0.060861 0)
(0.034342 0.055626 0)
(0.034586 0.051546 0)
(0.034733 0.05022 0)
(0.034473 0.052897 1)
(0.05522 0.031961 1)
(0.054598 0.031702 0)
(0.053908 0.03158 1)
(0.051514 0.031923 1)
(0.057515 0.04255 1)
(0.057308 0.035066 0)
(0.037865 0.041033 1)
(0.040329 0.038497 1)
(0.034553 0.063174 1)
(0.035333 0.06775 0)
(0.034916 0.048932 1)
(0.052358 0.031704 0)
(0.047881 0.033551 0)
(0.04695 0.034081 1)
(0.046027 0.034634 1)
(0.04512 0.035197 0)
(0.043387 0.036307 1)
(0.044237 0.035758 0)
(0.041787 0.037388 0)
(0.035799 0.068114 0)
(0.057027 0.044916 0)
(0.055863 0.048338 0)
(0.055363 0.049403 0)
(0.054809 0.050412 1)
(0.035037 0.066715 1)
(0.035182 0.067304 1)
(0.035182 0.067304 0)
(0.034772 0.065158 1)
(0.034772 0.065158 0)
(0.034656 0.064213 0)
(0.034656 0.064213 1)
(0.035487 0.068042 0)
(0.054201 0.051354 0)
(0.0573 0.043735 1)
(0.0573 0.043735 0)
(0.057681 0.036955 1)
(0.036438 0.043446 0)
(0.036048 0.044387 1)
(0.03902 0.039692 0)
(0.039655 0.03908 1)
(0.034467 0.062053 1)
(0.034467 0.062053 0)
(0.034393 0.054261 0)
(0.034473 0.052897 0)
(0.035136 0.047692 1)
(0.035136 0.047692 0)
(0.05522 0.031961 0)
(0.056258 0.032874 0)
(0.056675 0.033505 0)
(0.056675 0.033505 1)
(0.055773 0.032355 0)
(0.048811 0.033058 1)
(0.048811 0.033058 0)
(0.051514 0.031923 0)
(0.034899 0.065996 0)
(0.057515 0.04255 0)
(0.057527 0.035975 1)
(0.057766 0.040215 0)
(0.040329 0.038497 0)
(0.04104 0.037935 0)
(0.04104 0.037935 1)
(0.034349 0.05961 0)
(0.052358 0.031704 1)
(0.053158 0.031585 1)
(0.046027 0.034634 0)
(0.04512 0.035197 1)
(0.043387 0.036307 0)
(0.052064 0.053678 1)
(0.057027 0.044916 1)
(0.03902 0.039692 1)
(0.038422 0.040341 1)
(0.05354 0.05222 1)
(0.05354 0.05222 0)
(0.052828 0.052998 0)
(0.0578 0.039085 1)
(0.037348 0.041776 1)
(0.037348 0.041776 0)
(0.036872 0.042578 0)
(0.036872 0.042578 1)
(0.039655 0.03908 0)
(0.035701 0.045409 1)
(0.035397 0.046514 0)
(0.034322 0.058313 0)
(0.034322 0.058313 1)
(0.034398 0.060861 1)
(0.034586 0.051546 1)
(0.034733 0.05022 1)
(0.054598 0.031702 1)
(0.055773 0.032355 1)
(0.053158 0.031585 0)
(0.050636 0.032231 1)
(0.05767 0.041373 0)
(0.05767 0.041373 1)
(0.057024 0.03424 1)
(0.037865 0.041033 0)
(0.034553 0.063174 0)
(0.035333 0.06775 1)
(0.034916 0.048932 0)
(0.047881 0.033551 1)
(0.04695 0.034081 0)
(0.04257 0.036848 1)
(0.044237 0.035758 1)
(0.057308 0.035066 1)
(0.049733 0.032613 1)
(0.057772 0.037995 1)
(0.035643 0.068167 0)
(0.057527 0.035975 0)
(0.056695 0.046085 0)
(0.034319 0.056981 0)
(0.053908 0.03158 0)
)

// edges

216
(
(51 9)
(10 52)
(53 12)
(54 13)
(14 55)
(0 56)
(57 58)
(59 60)
(61 62)
(16 51)
(63 17)
(64 18)
(19 8)
(65 66)
(67 20)
(22 68)
(69 23)
(70 71)
(27 72)
(72 73)
(1 28)
(74 1)
(75 31)
(76 77)
(78 32)
(2 79)
(80 81)
(82 2)
(3 83)
(83 84)
(85 35)
(4 0)
(86 4)
(87 36)
(37 88)
(5 89)
(21 5)
(39 90)
(91 92)
(6 93)
(27 6)
(30 42)
(77 42)
(43 94)
(95 43)
(46 96)
(97 47)
(98 48)
(50 7)
(122 3)
(17 7)
(7 128)
(69 7)
(7 112)
(12 7)
(7 40)
(9 7)
(7 10)
(7 42)
(57 7)
(7 16)
(7 5)
(7 36)
(120 7)
(7 2)
(7 4)
(7 13)
(55 7)
(103 7)
(7 19)
(7 22)
(134 7)
(7 125)
(7 31)
(118 7)
(135 7)
(7 122)
(7 34)
(95 7)
(7 130)
(100 7)
(7 18)
(7 88)
(136 7)
(102 7)
(25 7)
(1 7)
(7 26)
(116 7)
(7 32)
(7 6)
(62 7)
(110 7)
(7 38)
(115 7)
(7 39)
(119 7)
(81 7)
(7 94)
(35 7)
(97 7)
(7 46)
(124 7)
(45 7)
(7 133)
(48 7)
(50 28)
(78 50)
(50 104)
(105 50)
(50 8)
(50 3)
(27 50)
(109 50)
(50 68)
(70 50)
(50 90)
(50 11)
(64 50)
(54 50)
(50 14)
(50 15)
(86 50)
(50 0)
(137 50)
(138 50)
(50 20)
(75 50)
(50 79)
(85 50)
(50 33)
(50 127)
(50 60)
(139 50)
(50 66)
(87 50)
(50 108)
(50 89)
(113 50)
(50 24)
(50 29)
(61 50)
(131 50)
(50 44)
(50 129)
(126 50)
(23 50)
(140 50)
(50 93)
(50 37)
(80 50)
(141 50)
(50 41)
(50 96)
(58 50)
(21 50)
(30 50)
(84 50)
(50 43)
(47 50)
(50 49)
(9 8)
(8 99)
(52 100)
(11 10)
(12 11)
(13 53)
(13 14)
(101 15)
(15 102)
(16 63)
(18 14)
(103 104)
(105 19)
(20 106)
(106 21)
(107 108)
(109 110)
(23 22)
(71 111)
(24 112)
(25 24)
(113 25)
(26 114)
(114 115)
(116 27)
(28 26)
(29 117)
(118 30)
(31 74)
(31 29)
(32 33)
(33 119)
(120 82)
(34 33)
(121 34)
(36 123)
(123 124)
(125 37)
(38 15)
(126 38)
(111 39)
(40 127)
(73 40)
(41 128)
(17 41)
(42 129)
(35 43)
(44 130)
(45 44)
(131 45)
(47 46)
(132 98)
(49 133)
(48 49)
(92 50)
)

// concaveStart mixedStart nonFeatureStart
8 8 51
// internalStart flatStart openStart multipleStart
161 216 216 216
// normals

285
(
(0.663804 0.747906 0)
(-0.321703 -0.946841 0)
(0.961957 0.2732 0)
(-0.961957 -0.2732 0)
(0.928362 0.371678 0)
(-0.905203 -0.424979 0)
(0.905203 0.424979 0)
(-0.876564 -0.481285 -0)
(0.876564 0.481285 0)
(-0.840191 -0.54229 0)
(-0.971009 0.239043 0)
(0.982075 -0.188491 0)
(-0.971009 0.239043 0)
(0.947185 -0.320686 0)
(-0.99255 0.121838 0)
(0.98871 -0.14984 0)
(-0.99255 0.121838 0)
(0.995122 -0.0986509 0)
(0.321703 0.946841 0)
(-0.625299 0.780385 0)
(0.884526 -0.466491 0)
(0.840191 0.54229 0)
(-0.794906 -0.606733 -0)
(-0.66485 -0.746977 -0)
(0.66485 0.746977 0)
(0.974308 0.225222 0)
(-0.983937 -0.178518 0)
(-0.996194 0.0871647 0)
(0.996194 -0.0871647 0)
(-0.894427 -0.447214 -0)
(0.923801 0.382872 0)
(-0.923801 -0.382872 0)
(0.946908 0.321504 0)
(0.693945 0.720028 0)
(-0.693945 -0.720028 0)
(-0.998329 0.057789 0)
(0.998329 -0.057789 0)
(0.99707 -0.0764908 0)
(0.999303 0.0373387 -0)
(-0.999303 -0.0373387 0)
(0.998285 0.0585481 0)
(-0.998285 -0.0585481 -0)
(0.99652 0.0833529 0)
(-0.976323 -0.216317 -0)
(0.984623 0.174692 0)
(0.384405 -0.923164 0)
(-0.58026 0.814431 0)
(0.834283 -0.551337 0)
(-0.730634 0.682769 0)
(0.834283 -0.551337 0)
(-0.903337 0.428932 0)
(0.730634 -0.682769 0)
(0.434664 0.900593 -0)
(-0.434664 -0.900593 0)
(0.468369 0.883533 0)
(-0.331021 -0.943624 0)
(0.251159 0.967946 0)
(-0.982075 0.188491 0)
(0.98871 -0.14984 0)
(0.99144 0.130565 0)
(-0.983937 -0.178518 -0)
(0.972183 -0.234221 0)
(-0.972183 0.234221 0)
(0.996581 0.0826188 0)
(-0.999548 -0.0300722 -0)
(0.999548 0.0300722 0)
(-0.620111 -0.784514 -0)
(0.654203 0.756319 0)
(-0.620111 -0.784514 0)
(0.590802 0.806817 0)
(-0.999783 0.0208106 0)
(0.999234 -0.0391407 0)
(-0.999234 0.0391407 0)
(-0.990057 -0.140666 0)
(0.990057 0.140666 0)
(-0.984623 -0.174692 -0)
(-0.251159 -0.967946 0)
(0.147132 0.989117 -0)
(-0.147132 -0.989117 0)
(-0.513949 -0.857821 -0)
(0.527386 0.849626 0)
(-0.527386 -0.849626 0)
(0.536255 0.844056 0)
(-0.552108 -0.833773 0)
(0.542555 0.840021 0)
(-0.590802 -0.806817 0)
(0.567732 0.823213 -0)
(-0.663804 -0.747906 0)
(0.974308 0.225222 0)
(-0.947015 -0.321191 0)
(0.947015 0.321191 0)
(-0.928362 -0.371678 0)
(-0.735413 -0.677619 -0)
(0.735413 0.677619 0)
(-0.778999 -0.627025 0)
(0.625299 -0.780385 0)
(-0.794906 -0.606733 0)
(0.737704 0.675125 0)
(0.737704 0.675125 0)
(0.99967 -0.0256789 0)
(-0.99967 0.0256789 0)
(0.859943 0.51039 0)
(-0.820837 -0.571163 0)
(0.859943 0.51039 0)
(-0.894427 -0.447214 0)
(-0.654203 -0.756319 0)
(0.946908 0.321504 -0)
(-0.964178 -0.265257 0)
(0.964178 0.265257 0)
(-0.976323 -0.216317 0)
(-0.999997 0.00225419 0)
(0.999997 -0.00225419 0)
(-0.999783 0.0208106 0)
(0.999856 0.0169717 -0)
(-0.999856 -0.0169717 0)
(0.993911 0.110185 -0)
(-0.99652 -0.0833529 0)
(0.993911 0.110185 0)
(-0.384405 0.923164 0)
(0.174111 -0.984726 0)
(-0.58026 0.814431 0)
(-0.174111 0.984726 0)
(-0.00666562 -0.999978 0)
(0.00666562 0.999978 0)
(-0.389609 -0.92098 -0)
(0.389609 0.92098 0)
(-0.99144 -0.130565 0)
(0.996581 0.0826188 0)
(-0.945664 0.325145 0)
(0.945664 -0.325145 0)
(0.778999 0.627025 0)
(-0.820837 -0.571163 -0)
(0.995122 -0.0986509 0)
(-0.99707 0.0764908 0)
(0.947185 -0.320686 0)
(-0.884526 0.466491 0)
(0.468369 0.883533 -0)
(-0.494732 -0.869046 0)
(0.494732 0.869046 0)
(-0.513949 -0.857821 0)
(0.552108 0.833773 0)
(0.536255 0.844056 -0)
(-0.542555 -0.840021 0)
(0 0 -1)
(0 0 1)
(0 0 1)
(0 0 1)
(0 0 -1)
(0 0 -1)
(0 0 1)
(0 0 -1)
(0 0 1)
(0 0 -1)
(0 -0 1)
(0 0 -1)
(0 0 1)
(0 0 -1)
(0 0 1)
(0 0 -1)
(0 0 -1)
(0 0 -1)
(0 0 1)
(0 0 1)
(0 0 -1)
(0 0 -1)
(0 0 1)
(0 0 1)
(0 0 1)
(0 0 -1)
(0 0 1)
(0 0 -1)
(0 0 -1)
(0 0 1)
(0 0 1)
(0 0 1)
(0 0 1)
(0 0 -1)
(0 0 -1)
(0 0 1)
(0 0 -1)
(0 0 1)
(0 0 -1)
(0 0 1)
(0 0 1)
(0 0 -1)
(0 0 1)
(0 0 1)
(0 0 1)
(0 0 -1)
(0 0 1)
(0 0 1)
(0 0 -1)
(-0 0 1)
(0 0 -1)
(0 0 1)
(0 0 1)
(0 0 1)
(0 0 1)
(0 0 -1)
(0 0 1)
(0 0 -1)
(0 0 -1)
(0 0 1)
(0 0 1)
(0 0 -1)
(0 0 -1)
(0 0 -1)
(0 0 1)
(0 0 -1)
(0 0 -1)
(0 0 1)
(0 0 1)
(0 0 -1)
(0 0 1)
(0 0 1)
(0 0 -1)
(0 0 -1)
(0 0 1)
(0 0 1)
(0 0 -1)
(0 0 -1)
(0 -0 1)
(0 0 1)
(0 0 -1)
(0 0 1)
(0 0 -1)
(0 0 1)
(0 0 -1)
(0 0 -1)
(0 0 -1)
(0 0 1)
(0 0 -1)
(0 0 1)
(0 0 1)
(0 0 -1)
(0 0 1)
(0 0 1)
(0 0 -1)
(0 0 -1)
(0 0 1)
(0 0 -1)
(0 0 -1)
(0 0 1)
(0 0 -1)
(0 0 -1)
(0 0 1)
(0 0 -1)
(0 0 1)
(0 0 1)
(0 0 -1)
(0 0 -1)
(0 0 1)
(0 0 1)
(0 0 -1)
(0 0 -1)
(0 0 1)
(0 0 -1)
(0 0 1)
(0 0 1)
(0 0 1)
(0 0 -1)
(0 0 1)
(0 0 1)
(0 0 1)
(0 0 -1)
(0 0 -1)
(0 0 1)
(0 0 1)
(0 0 1)
(0 0 -1)
(0 0 1)
(0 0 1)
(0 0 1)
(0 0 -1)
(0 0 1)
(0 0 1)
(0 0 -1)
(0 0 -1)
(0 0 1)
(0 0 -1)
(0 0 1)
(0 0 -1)
(0 0 1)
(0 0 1)
(0 0 -1)
)

// normal volume types

285
(
0
0
0
0
0
0
0
0
0
0
0
0
0
0
0
0
0
0
0
0
0
0
0
0
0
0
0
0
0
0
0
0
0
0
0
0
0
0
0
0
0
0
0
0
0
0
0
0
0
0
0
0
0
0
0
0
0
0
0
0
0
0
0
0
0
0
0
0
0
0
0
0
0
0
0
0
0
0
0
0
0
0
0
0
0
0
0
0
0
0
0
0
0
0
0
0
0
0
0
0
0
0
0
0
0
0
0
0
0
0
0
0
0
0
0
0
0
0
0
0
0
0
0
0
0
0
0
0
0
0
0
0
0
0
0
0
0
0
0
0
0
0
0
0
0
0
0
0
0
0
0
0
0
0
0
0
0
0
0
0
0
0
0
0
0
0
0
0
0
0
0
0
0
0
0
0
0
0
0
0
0
0
0
0
0
0
0
0
0
0
0
0
0
0
0
0
0
0
0
0
0
0
0
0
0
0
0
0
0
0
0
0
0
0
0
0
0
0
0
0
0
0
0
0
0
0
0
0
0
0
0
0
0
0
0
0
0
0
0
0
0
0
0
0
0
0
0
0
0
0
0
0
0
0
0
0
0
0
0
0
0
0
0
0
0
0
0
0
0
0
0
0
0
0
0
0
0
0
0
0
0
0
0
0
0
)

// normalDirections

216
(
2{1}
2{1}
2{1}
2{1}
2{1}
2{1}
2{1}
2{1}
2{1}
2{1}
2{1}
2{1}
2{1}
2{1}
2{1}
2{1}
2{1}
2{1}
2{1}
2{1}
2{1}
2{1}
2{1}
2{1}
2{1}
2{1}
2{1}
2{1}
2{1}
2{1}
2{1}
2{1}
2{1}
2{1}
2{1}
2{1}
2{1}
2{1}
2{1}
2{1}
2{1}
2{1}
2{1}
2{1}
2{1}
2{1}
2{1}
2{1}
2{1}
2{1}
2{1}
2{1}
2{1}
2{1}
2{1}
2{1}
2{1}
2{1}
2{1}
2{1}
2{1}
2{1}
2{1}
2{1}
2{1}
2{1}
2{1}
2{1}
2{1}
2{1}
2{1}
2{1}
2{1}
2{1}
2{1}
2{1}
2{1}
2{1}
2{1}
2{1}
2{1}
2{1}
2{1}
2{1}
2{1}
2{1}
2{1}
2{1}
2{1}
2{1}
2{1}
2{1}
2{1}
2{1}
2{1}
2{1}
2{1}
2{1}
2{1}
2{1}
2{1}
2{1}
2{1}
2{1}
2{1}
2{1}
2{1}
2{1}
2{1}
2{1}
2{1}
2{1}
2{1}
2{1}
2{1}
2{1}
2{1}
2{1}
2{1}
2{1}
2{1}
2{1}
2{1}
2{1}
2{1}
2{1}
2{1}
2{1}
2{1}
2{1}
2{1}
2{1}
2{1}
2{1}
2{1}
2{1}
2{1}
2{1}
2{1}
2{1}
2{1}
2{1}
2{1}
2{1}
2{1}
2{1}
2{1}
2{1}
2{1}
2{1}
2{1}
2{1}
2{1}
2{1}
2{1}
2{1}
2{1}
2{1}
2{1}
2{1}
2{1}
2{1}
2{1}
2{1}
2{1}
2{1}
2{1}
2{1}
2{1}
2{1}
2{1}
2{1}
2{1}
2{1}
2{1}
2{1}
2{1}
2{1}
2{1}
2{1}
2{1}
2{1}
2{1}
2{1}
2{1}
2{1}
2{1}
2{1}
2{1}
2{1}
2{1}
2{1}
2{1}
2{1}
2{1}
2{1}
2{1}
2{1}
2{1}
2{1}
2{1}
2{1}
2{1}
2{1}
2{1}
2{1}
2{1}
2{1}
2{1}
2{1}
2{1}
2{1}
2{1}
2{1}
2{1}
2{1}
)

// edgeNormals

216
(
2(0 1)
2(2 3)
2(4 5)
2(6 7)
2(8 9)
2(10 11)
2(12 13)
2(14 15)
2(16 17)
2(18 1)
2(19 20)
2(21 22)
2(23 24)
2(25 26)
2(27 28)
2(29 30)
2(31 32)
2(33 34)
2(35 36)
2(35 37)
2(38 39)
2(39 40)
2(41 42)
2(43 44)
2(45 46)
2(47 48)
2(49 50)
2(48 51)
2(52 53)
2(53 54)
2(55 56)
2(57 11)
2(57 58)
2(59 60)
2(61 62)
2(63 64)
2(65 64)
2(66 67)
2(68 69)
2(70 71)
2(72 71)
2(73 74)
2(44 75)
2(76 77)
2(78 77)
2(79 80)
2(81 82)
2(83 84)
2(85 86)
2(124 125)
2(143 144)
2(143 145)
2(146 147)
2(146 148)
2(149 150)
2(151 152)
2(153 154)
2(155 156)
2(157 158)
2(159 145)
2(144 154)
2(160 161)
2(162 163)
2(164 165)
2(164 166)
2(167 168)
2(169 150)
2(169 170)
2(171 172)
2(171 173)
2(147 174)
2(175 176)
2(175 177)
2(178 179)
2(180 158)
2(181 182)
2(181 183)
2(184 185)
2(184 186)
2(187 188)
2(156 189)
2(172 170)
2(190 176)
2(191 192)
2(193 194)
2(148 195)
2(196 179)
2(197 198)
2(199 200)
2(165 201)
2(200 202)
2(203 152)
2(204 174)
2(205 194)
2(198 202)
2(206 207)
2(201 185)
2(166 177)
2(186 208)
2(183 208)
2(209 210)
2(209 211)
2(163 161)
2(188 211)
2(210 212)
2(212 213)
2(214 215)
2(216 217)
2(218 219)
2(218 220)
2(221 220)
2(222 223)
2(224 225)
2(226 227)
2(226 228)
2(229 230)
2(231 232)
2(233 234)
2(219 235)
2(236 237)
2(237 235)
2(230 238)
2(239 240)
2(239 241)
2(242 243)
2(244 245)
2(246 247)
2(248 249)
2(250 251)
2(252 253)
2(217 254)
2(255 256)
2(240 257)
2(258 234)
2(259 260)
2(261 260)
2(227 262)
2(263 264)
2(265 266)
2(265 267)
2(249 268)
2(256 257)
2(269 270)
2(269 271)
2(272 273)
2(262 238)
2(228 267)
2(274 215)
2(275 225)
2(276 245)
2(251 277)
2(254 278)
2(279 280)
2(270 281)
2(241 280)
2(247 264)
2(268 273)
2(223 271)
2(282 253)
2(281 283)
2(284 283)
2(87 0)
2(87 24)
2(3 88)
2(89 90)
2(91 4)
2(6 5)
2(7 8)
2(92 93)
2(93 94)
2(95 19)
2(21 9)
2(96 97)
2(23 98)
2(99 100)
2(100 65)
2(101 102)
2(103 104)
2(30 31)
2(33 105)
2(106 107)
2(107 108)
2(108 109)
2(110 111)
2(111 112)
2(36 72)
2(113 114)
2(115 116)
2(117 73)
2(41 40)
2(42 116)
2(45 118)
2(118 119)
2(120 51)
2(121 119)
2(122 123)
2(59 126)
2(126 127)
2(128 129)
2(130 94)
2(130 131)
2(67 105)
2(132 133)
2(133 37)
2(134 135)
2(20 135)
2(74 75)
2(56 76)
2(136 137)
2(137 138)
2(138 139)
2(80 81)
2(140 83)
2(141 142)
2(142 84)
2(69 85)
)

// featurePointNormals

51
(
5(10 11 57 239 241)
5(38 39 40 196 179)
5(47 48 51 164 166)
6(52 53 124 125 222 223)
5(57 11 58 167 168)
5(63 64 65 160 161)
5(70 71 72 200 202)
4(85 86 143 144)
4(23 24 221 220)
5(0 1 153 154 87)
6(2 3 155 156 89 90)
6(233 234 89 90 91 4)
5(4 5 149 150 91)
6(6 7 169 150 5 8)
6(8 9 237 235 7 21)
6(230 238 92 93 94 130)
6(18 1 144 154 95 19)
5(19 20 143 144 135)
5(21 22 172 170 9)
5(23 24 171 173 98)
6(27 28 246 247 99 100)
5(65 64 247 264 100)
5(29 30 147 174 31)
5(31 32 228 267 30)
5(265 267 106 107 108)
5(148 195 107 108 109)
6(197 198 110 111 113 114)
6(35 36 72 71 224 225)
6(38 39 214 215 113 114)
5(249 268 115 116 42)
5(73 74 268 273 117)
6(41 42 178 179 40 116)
5(45 46 165 201 118)
6(217 254 45 118 119 121)
6(184 185 121 119 122 123)
5(55 56 183 208 76)
5(59 60 162 163 126)
6(61 62 276 245 128 129)
5(205 194 130 94 131)
5(66 67 206 207 105)
5(151 152 132 133 37)
5(279 280 134 135 20)
6(73 74 44 75 157 158)
6(76 77 78 282 253 56)
5(269 271 136 137 138)
5(188 211 137 138 139)
5(79 80 209 211 81)
5(81 82 281 283 80)
5(83 84 212 213 142)
5(284 283 141 142 84)
5(85 86 214 215 69)
)

// featurePointEdges

51
(
3(123 31 5)
3(20 21 86)
3(64 27 25)
3(28 111 49)
3(31 65 32)
3(61 36 35)
3(39 40 90)

57
(
50
60
56
69
68
81
67
66
54
57
80
62
102
61
83
82
71
72
97
64
63
89
96
77
78
98
99
76
75
79
103
101
100
104
105
48
95
84
93
92
70
52
53
85
58
74
73
86
87
94
90
88
55
91
65
59
51
)

4(161 110 12 162)
3(161 0 56)
3(1 57 164)
3(164 117 165)
3(165 2 54)
4(166 66 167 3)
4(167 4 171 120)
4(168 169 199 121)
3(9 60 170)
3(10 205 50)
3(171 81 11)
3(12 69 173)
3(174 126 14)
3(175 36 155)
3(70 178 15)
3(178 16 146)
3(139 181 180)
3(181 182 85)
3(183 87 186)
4(18 185 40 112)
3(186 106 20)
3(140 190 187)
3(188 41 156)
4(189 73 190 22)
3(191 89 24)
4(191 192 194 130)
3(194 77 195)
3(30 207 99)
3(196 62 33)
3(34 149 198)
3(199 93 200)
3(95 201 37)
3(55 203 202)
3(204 205 152)
4(41 206 42 58)
4(207 43 44 158)
3(208 209 143)
3(209 210 103)
3(101 211 45)
3(211 46 159)
3(47 214 105)
3(160 214 213)

57
(
127
140
156
144
138
139
146
114
113
136
145
121
115
116
215
48
160
159
153
142
143
157
111
129
158
151
130
107
128
150
149
125
126
155
137
135
134
133
117
119
120
118
108
109
110
124
152
154
123
122
132
141
131
112
148
147
106
)

)

// regionEdges
0()


// ************************************************************************* //
