/*--------------------------------*- C++ -*----------------------------------*\
  =========                 |
  \\      /  F ield         | OpenFOAM: The Open Source CFD Toolbox
   \\    /   O peration     | Website:  https://openfoam.org
    \\  /    A nd           | Version:  7
     \\/     M anipulation  |
\*---------------------------------------------------------------------------*/
FoamFile
{
    version     2.0;
    format      ascii;
    class       featureEdgeMesh;
    location    "constant/triSurface";
    object      model.eMesh;
}
// * * * * * * * * * * * * * * * * * * * * * * * * * * * * * * * * * * * * * //


// points:

135
(
(0.028709 0.035723 0)
(0.028154 0.036992 0)
(0.04004 0.026446 1)
(0.027429 0.050952 1)
(0.027152 0.0493 0)
(0.029346 0.034525 1)
(0.030841 0.03235 1)
(0.02704 0.041215 1)
(0.027686 0.038331 1)
(0.026951 0.047638 1)
(0.035132 0.064488 0)
(0.026871 0.042757 0)
(0.055587 0.032986 0)
(0.038898 0.026771 0)
(0.041191 0.026208 0)
(0.027777 0.052579 0)
(0.031648 0.061966 1)
(0.030985 0.060949 0)
(0.032331 0.062833 0)
(0.057664 0.037157 0)
(0.059072 0.058539 1)
(0.059891 0.057326 1)
(0.060185 0.056451 0)
(0.060557 0.050072 0)
(0.028658 0.055698 1)
(0.029744 0.058529 1)
(0.046894 0.02637 1)
(0.045778 0.026152 1)
(0.04799 0.026686 0)
(0.058761 0.040316 1)
(0.057028 0.035674 1)
(0.053038 0.029803 0)
(0.036669 0.027677 1)
(0.035593 0.028256 0)
(0.044646 0.026029 0)
(0.060404 0.055418 1)
(0.033027 0.063534 1)
(0.05112 0.02824 0)
(0.053935 0.03075 1)
(0.060625 0.051556 1)
(0.05112 0.02824 1)
(0.032592 0.030477 1)
(0.035132 0.064488 1)
(0.026871 0.042757 1)
(0.034434 0.064377 1)
(0.028709 0.035723 1)
(0.028154 0.036992 1)
(0.056335 0.034278 0)
(0.056335 0.034278 1)
(0.055587 0.032986 1)
(0.037772 0.027182 1)
(0.042347 0.026058 1)
(0.028189 0.054167 1)
(0.030985 0.060949 1)
(0.029346 0.034525 0)
(0.030841 0.03235 0)
(0.031688 0.031375 0)
(0.031688 0.031375 1)
(0.030058 0.033401 0)
(0.02704 0.041215 0)
(0.027686 0.038331 0)
(0.058242 0.03871 1)
(0.057664 0.037157 1)
(0.058546 0.058841 0)
(0.059891 0.057326 0)
(0.060185 0.056451 1)
(0.060421 0.048518 1)
(0.060557 0.050072 1)
(0.026804 0.044351 0)
(0.026833 0.045984 1)
(0.026833 0.045984 0)
(0.029744 0.058529 0)
(0.034434 0.064377 0)
(0.03373 0.064054 1)
(0.045778 0.026152 0)
(0.046894 0.02637 0)
(0.04799 0.026686 1)
(0.050107 0.027618 0)
(0.050107 0.027618 1)
(0.058761 0.040316 0)
(0.059219 0.041956 0)
(0.059219 0.041956 1)
(0.052098 0.028967 1)
(0.052098 0.028967 0)
(0.054786 0.03181 1)
(0.054786 0.03181 0)
(0.060623 0.052954 1)
(0.060623 0.052954 0)
(0.060549 0.054247 0)
(0.060549 0.054247 1)
(0.026951 0.047638 0)
(0.060625 0.051556 0)
(0.059949 0.045272 1)
(0.059949 0.045272 0)
(0.035819 0.064371 1)
(0.026804 0.044351 1)
(0.038898 0.026771 1)
(0.041191 0.026208 1)
(0.042347 0.026058 0)
(0.027777 0.052579 1)
(0.030349 0.059799 1)
(0.030058 0.033401 1)
(0.027313 0.039739 1)
(0.027313 0.039739 0)
(0.058242 0.03871 0)
(0.059072 0.058539 0)
(0.05952 0.058029 0)
(0.05952 0.058029 1)
(0.028658 0.055698 0)
(0.029179 0.057157 0)
(0.029179 0.057157 1)
(0.028189 0.054167 0)
(0.030349 0.059799 0)
(0.03373 0.064054 0)
(0.049062 0.027101 1)
(0.057028 0.035674 0)
(0.053038 0.029803 1)
(0.036669 0.027677 0)
(0.035593 0.028256 1)
(0.03455 0.028916 1)
(0.0435 0.025998 1)
(0.060404 0.055418 0)
(0.033027 0.063534 0)
(0.060218 0.046912 0)
(0.033548 0.029657 0)
(0.032592 0.030477 0)
(0.053935 0.03075 0)
(0.0435 0.025998 0)
(0.04004 0.026446 0)
(0.027429 0.050952 0)
(0.031648 0.061966 0)
(0.060218 0.046912 1)
(0.027152 0.0493 1)
(0.032331 0.062833 1)
(0.059616 0.043614 1)
)


// edges:

204
(
(10 42)
(11 43)
(44 10)
(0 45)
(46 1)
(47 48)
(49 12)
(2 13)
(50 13)
(14 2)
(14 51)
(3 15)
(52 15)
(4 3)
(17 53)
(5 0)
(54 5)
(6 55)
(56 57)
(58 6)
(7 11)
(59 7)
(1 8)
(8 60)
(19 61)
(62 19)
(63 20)
(21 64)
(65 22)
(66 23)
(23 67)
(68 69)
(69 70)
(25 71)
(72 73)
(26 74)
(75 26)
(28 76)
(77 78)
(29 79)
(80 81)
(82 83)
(84 85)
(32 33)
(27 34)
(86 87)
(88 89)
(9 4)
(90 9)
(31 38)
(91 39)
(92 93)
(83 40)
(103 8)
(31 82)
(36 18)
(123 37)
(37 60)
(63 37)
(124 37)
(37 13)
(54 37)
(88 37)
(37 87)
(112 37)
(37 17)
(106 37)
(37 105)
(59 37)
(37 11)
(37 125)
(37 10)
(37 79)
(37 55)
(75 37)
(111 37)
(37 108)
(37 71)
(90 37)
(37 70)
(72 37)
(37 23)
(19 37)
(37 115)
(117 37)
(56 37)
(37 126)
(37 14)
(37 15)
(68 37)
(37 0)
(37 121)
(80 37)
(37 93)
(122 37)
(37 113)
(31 37)
(127 37)
(37 64)
(109 37)
(37 4)
(37 18)
(1 37)
(12 37)
(128 37)
(22 37)
(37 28)
(129 37)
(130 37)
(37 33)
(37 34)
(91 37)
(41 120)
(116 41)
(53 41)
(102 41)
(41 7)
(41 38)
(41 29)
(99 41)
(42 41)
(46 41)
(49 41)
(41 36)
(41 24)
(41 25)
(62 41)
(41 2)
(96 41)
(41 40)
(41 3)
(43 41)
(41 16)
(101 41)
(41 5)
(41 6)
(41 8)
(41 30)
(97 41)
(41 20)
(65 41)
(41 21)
(132 41)
(41 35)
(133 41)
(76 41)
(41 26)
(41 114)
(41 32)
(118 41)
(27 41)
(107 41)
(67 41)
(110 41)
(41 39)
(41 9)
(78 41)
(81 41)
(92 41)
(41 134)
(89 41)
(41 131)
(94 10)
(95 11)
(13 96)
(97 14)
(51 98)
(15 99)
(16 17)
(100 17)
(18 16)
(101 58)
(102 103)
(61 104)
(20 105)
(106 107)
(22 21)
(24 108)
(109 110)
(111 24)
(112 25)
(73 113)
(74 27)
(26 28)
(114 28)
(104 29)
(30 115)
(19 30)
(116 31)
(12 84)
(117 32)
(33 118)
(119 33)
(34 120)
(35 121)
(22 35)
(122 36)
(38 126)
(85 38)
(39 23)
(123 131)
(40 37)
(41 125)
(124 41)
)

// * * * * * * * * * * * * * * * * * * * * * * * * * * * * * * * * * * * * * //


// ************************************************************************* //
