/*--------------------------------*- C++ -*----------------------------------*\
  =========                 |
  \\      /  F ield         | OpenFOAM: The Open Source CFD Toolbox
   \\    /   O peration     | Website:  https://openfoam.org
    \\  /    A nd           | Version:  7
     \\/     M anipulation  |
\*---------------------------------------------------------------------------*/
FoamFile
{
    version     2.0;
    format      ascii;
    class       featureEdgeMesh;
    location    "constant/triSurface";
    object      model.eMesh;
}
// * * * * * * * * * * * * * * * * * * * * * * * * * * * * * * * * * * * * * //


// points:

118
(
(0.0565 0.0505 1)
(0.031333 0.064721 0)
(0.034817 0.043786 0)
(0.032733 0.049017 1)
(0.0323 0.050403 0)
(0.03542 0.04262 1)
(0.052436 0.026682 0)
(0.060327 0.036533 1)
(0.05722 0.049879 0)
(0.057862 0.049107 1)
(0.058427 0.0482 1)
(0.058917 0.047174 0)
(0.03963 0.037489 0)
(0.054016 0.025771 0)
(0.055701 0.050962 1)
(0.059333 0.046044 1)
(0.038865 0.038149 1)
(0.038124 0.038868 0)
(0.057341 0.026515 0)
(0.060157 0.042187 1)
(0.033707 0.046313 1)
(0.031906 0.051795 0)
(0.03155 0.05318 1)
(0.030249 0.062484 1)
(0.03025 0.061612 0)
(0.030298 0.063235 0)
(0.030398 0.063851 1)
(0.030727 0.057166 0)
(0.05476 0.025543 1)
(0.058365 0.028019 1)
(0.05676 0.025995 1)
(0.03055 0.06432 1)
(0.059952 0.043535 0)
(0.060215 0.035132 0)
(0.060043 0.033766 1)
(0.059815 0.032452 0)
(0.060369 0.039382 0)
(0.059532 0.031205 1)
(0.030396 0.059555 1)
(0.030959 0.055878 1)
(0.0565 0.0505 0)
(0.031016 0.064768 0)
(0.031333 0.064721 1)
(0.058427 0.0482 0)
(0.034245 0.045021 1)
(0.034817 0.043786 1)
(0.036053 0.041536 1)
(0.036053 0.041536 0)
(0.036716 0.040547 0)
(0.036716 0.040547 1)
(0.056135 0.025651 0)
(0.056135 0.025651 1)
(0.057877 0.027195 1)
(0.057341 0.026515 1)
(0.060157 0.042187 0)
(0.032733 0.049017 0)
(0.033202 0.047649 0)
(0.033202 0.047649 1)
(0.0323 0.050403 1)
(0.034245 0.045021 0)
(0.03542 0.04262 0)
(0.03025 0.061612 1)
(0.031234 0.054545 1)
(0.031234 0.054545 0)
(0.052436 0.026682 1)
(0.05324 0.026158 1)
(0.058365 0.028019 0)
(0.030398 0.063851 0)
(0.059952 0.043535 1)
(0.060379 0.037955 0)
(0.060327 0.036533 0)
(0.060215 0.035132 1)
(0.059815 0.032452 1)
(0.060369 0.039382 1)
(0.059532 0.031205 0)
(0.030396 0.059555 0)
(0.05722 0.049879 1)
(0.057862 0.049107 0)
(0.051608 0.02732 1)
(0.03963 0.037489 1)
(0.05324 0.026158 0)
(0.054016 0.025771 1)
(0.055701 0.050962 0)
(0.059677 0.044826 0)
(0.038865 0.038149 0)
(0.038124 0.038868 1)
(0.037407 0.039661 1)
(0.055467 0.025497 1)
(0.057877 0.027195 0)
(0.030756 0.06463 1)
(0.030756 0.06463 0)
(0.060296 0.040798 0)
(0.060296 0.040798 1)
(0.059194 0.03004 1)
(0.059194 0.03004 0)
(0.058805 0.028973 0)
(0.058805 0.028973 1)
(0.033707 0.046313 0)
(0.031906 0.051795 1)
(0.03155 0.05318 0)
(0.030539 0.058396 0)
(0.030539 0.058396 1)
(0.030727 0.057166 1)
(0.030299 0.060632 1)
(0.05476 0.025543 0)
(0.055467 0.025497 0)
(0.05676 0.025995 0)
(0.03055 0.06432 0)
(0.059677 0.044826 1)
(0.060379 0.037955 1)
(0.060043 0.033766 0)
(0.030299 0.060632 0)
(0.059333 0.046044 0)
(0.051608 0.02732 0)
(0.030249 0.062484 0)
(0.030959 0.055878 0)
(0.031016 0.064768 1)
(0.058917 0.047174 1)
)


// edges:

180
(
(0 8)
(40 0)
(9 8)
(41 42)
(42 1)
(10 43)
(1 14)
(44 2)
(2 45)
(46 47)
(48 49)
(16 17)
(50 51)
(18 52)
(53 18)
(54 19)
(3 55)
(56 57)
(4 3)
(58 4)
(59 20)
(5 2)
(60 5)
(23 24)
(24 61)
(62 63)
(6 64)
(65 6)
(29 66)
(31 67)
(32 68)
(69 7)
(7 70)
(33 7)
(71 33)
(72 35)
(36 73)
(37 74)
(38 75)
(63 39)
(13 28)
(35 34)
(13 36)
(36 104)
(77 36)
(36 8)
(60 36)
(36 47)
(36 12)
(84 36)
(18 36)
(56 36)
(36 55)
(99 36)
(36 25)
(1 36)
(36 82)
(36 6)
(33 36)
(36 70)
(36 2)
(36 32)
(40 36)
(36 66)
(36 11)
(36 24)
(111 36)
(48 36)
(36 17)
(36 90)
(36 106)
(112 36)
(36 97)
(36 110)
(107 36)
(113 36)
(36 74)
(105 36)
(95 36)
(54 36)
(59 36)
(4 36)
(36 21)
(114 36)
(36 75)
(36 115)
(35 36)
(27 36)
(9 39)
(39 76)
(71 39)
(39 34)
(26 39)
(39 10)
(53 39)
(39 30)
(116 39)
(0 39)
(39 14)
(58 39)
(39 98)
(39 29)
(39 7)
(108 39)
(39 15)
(79 39)
(85 39)
(39 86)
(19 39)
(39 68)
(117 39)
(39 20)
(45 39)
(39 37)
(39 38)
(39 16)
(65 39)
(39 64)
(39 31)
(39 3)
(49 39)
(22 39)
(39 5)
(39 23)
(51 39)
(39 28)
(96 39)
(39 73)
(57 39)
(61 39)
(109 39)
(72 39)
(8 76)
(77 9)
(11 10)
(78 12)
(12 79)
(80 81)
(81 13)
(14 82)
(15 11)
(83 15)
(16 12)
(84 16)
(17 85)
(86 17)
(87 50)
(52 88)
(89 90)
(19 91)
(91 92)
(93 94)
(95 96)
(20 97)
(21 98)
(22 21)
(99 22)
(25 23)
(26 25)
(67 26)
(100 101)
(102 27)
(103 24)
(28 104)
(105 28)
(88 29)
(30 106)
(18 30)
(107 31)
(19 32)
(108 32)
(109 69)
(34 110)
(33 34)
(92 36)
(35 37)
(94 37)
(111 38)
(27 39)
(39 115)
)

// * * * * * * * * * * * * * * * * * * * * * * * * * * * * * * * * * * * * * //


// ************************************************************************* //
