/*--------------------------------*- C++ -*----------------------------------*\
  =========                 |
  \\      /  F ield         | OpenFOAM: The Open Source CFD Toolbox
   \\    /   O peration     | Website:  https://openfoam.org
    \\  /    A nd           | Version:  7
     \\/     M anipulation  |
\*---------------------------------------------------------------------------*/
FoamFile
{
    version     2.0;
    format      ascii;
    class       extendedFeatureEdgeMesh;
    location    "constant/extendedFeatureEdgeMesh";
    object      model.extendedFeatureEdgeMesh;
}
// * * * * * * * * * * * * * * * * * * * * * * * * * * * * * * * * * * * * * //

// points

135
(
(0.028709 0.035723 0)
(0.028154 0.036992 0)
(0.04004 0.026446 1)
(0.027429 0.050952 1)
(0.027152 0.0493 0)
(0.029346 0.034525 1)
(0.030841 0.03235 1)
(0.02704 0.041215 1)
(0.027686 0.038331 1)
(0.026951 0.047638 1)
(0.035132 0.064488 0)
(0.026871 0.042757 0)
(0.055587 0.032986 0)
(0.038898 0.026771 0)
(0.041191 0.026208 0)
(0.027777 0.052579 0)
(0.031648 0.061966 1)
(0.030985 0.060949 0)
(0.032331 0.062833 0)
(0.057664 0.037157 0)
(0.059072 0.058539 1)
(0.059891 0.057326 1)
(0.060185 0.056451 0)
(0.060557 0.050072 0)
(0.028658 0.055698 1)
(0.029744 0.058529 1)
(0.046894 0.02637 1)
(0.045778 0.026152 1)
(0.04799 0.026686 0)
(0.058761 0.040316 1)
(0.057028 0.035674 1)
(0.053038 0.029803 0)
(0.036669 0.027677 1)
(0.035593 0.028256 0)
(0.044646 0.026029 0)
(0.060404 0.055418 1)
(0.033027 0.063534 1)
(0.05112 0.02824 0)
(0.053935 0.03075 1)
(0.060625 0.051556 1)
(0.05112 0.02824 1)
(0.032592 0.030477 1)
(0.035132 0.064488 1)
(0.026871 0.042757 1)
(0.034434 0.064377 1)
(0.028709 0.035723 1)
(0.028154 0.036992 1)
(0.056335 0.034278 0)
(0.056335 0.034278 1)
(0.055587 0.032986 1)
(0.037772 0.027182 1)
(0.042347 0.026058 1)
(0.028189 0.054167 1)
(0.030985 0.060949 1)
(0.029346 0.034525 0)
(0.030841 0.03235 0)
(0.031688 0.031375 0)
(0.031688 0.031375 1)
(0.030058 0.033401 0)
(0.02704 0.041215 0)
(0.027686 0.038331 0)
(0.058242 0.03871 1)
(0.057664 0.037157 1)
(0.058546 0.058841 0)
(0.059891 0.057326 0)
(0.060185 0.056451 1)
(0.060421 0.048518 1)
(0.060557 0.050072 1)
(0.026804 0.044351 0)
(0.026833 0.045984 1)
(0.026833 0.045984 0)
(0.029744 0.058529 0)
(0.034434 0.064377 0)
(0.03373 0.064054 1)
(0.045778 0.026152 0)
(0.046894 0.02637 0)
(0.04799 0.026686 1)
(0.050107 0.027618 0)
(0.050107 0.027618 1)
(0.058761 0.040316 0)
(0.059219 0.041956 0)
(0.059219 0.041956 1)
(0.052098 0.028967 1)
(0.052098 0.028967 0)
(0.054786 0.03181 1)
(0.054786 0.03181 0)
(0.060623 0.052954 1)
(0.060623 0.052954 0)
(0.060549 0.054247 0)
(0.060549 0.054247 1)
(0.026951 0.047638 0)
(0.060625 0.051556 0)
(0.059949 0.045272 1)
(0.059949 0.045272 0)
(0.035819 0.064371 1)
(0.026804 0.044351 1)
(0.038898 0.026771 1)
(0.041191 0.026208 1)
(0.042347 0.026058 0)
(0.027777 0.052579 1)
(0.030349 0.059799 1)
(0.030058 0.033401 1)
(0.027313 0.039739 1)
(0.027313 0.039739 0)
(0.058242 0.03871 0)
(0.059072 0.058539 0)
(0.05952 0.058029 0)
(0.05952 0.058029 1)
(0.028658 0.055698 0)
(0.029179 0.057157 0)
(0.029179 0.057157 1)
(0.028189 0.054167 0)
(0.030349 0.059799 0)
(0.03373 0.064054 0)
(0.049062 0.027101 1)
(0.057028 0.035674 0)
(0.053038 0.029803 1)
(0.036669 0.027677 0)
(0.035593 0.028256 1)
(0.03455 0.028916 1)
(0.0435 0.025998 1)
(0.060404 0.055418 0)
(0.033027 0.063534 0)
(0.060218 0.046912 0)
(0.033548 0.029657 0)
(0.032592 0.030477 0)
(0.053935 0.03075 0)
(0.0435 0.025998 0)
(0.04004 0.026446 0)
(0.027429 0.050952 0)
(0.031648 0.061966 0)
(0.060218 0.046912 1)
(0.027152 0.0493 1)
(0.032331 0.062833 1)
(0.059616 0.043614 1)
)

// edges

204
(
(10 42)
(11 43)
(44 10)
(0 45)
(46 1)
(47 48)
(49 12)
(2 13)
(50 13)
(14 2)
(14 51)
(3 15)
(52 15)
(4 3)
(17 53)
(5 0)
(54 5)
(6 55)
(56 57)
(58 6)
(7 11)
(59 7)
(1 8)
(8 60)
(19 61)
(62 19)
(63 20)
(21 64)
(65 22)
(66 23)
(23 67)
(68 69)
(69 70)
(25 71)
(72 73)
(26 74)
(75 26)
(28 76)
(77 78)
(29 79)
(80 81)
(82 83)
(84 85)
(32 33)
(27 34)
(86 87)
(88 89)
(9 4)
(90 9)
(31 38)
(91 39)
(92 93)
(83 40)
(103 8)
(31 82)
(36 18)
(123 37)
(37 60)
(63 37)
(124 37)
(37 13)
(54 37)
(88 37)
(37 87)
(112 37)
(37 17)
(106 37)
(37 105)
(59 37)
(37 11)
(37 125)
(37 10)
(37 79)
(37 55)
(75 37)
(111 37)
(37 108)
(37 71)
(90 37)
(37 70)
(72 37)
(37 23)
(19 37)
(37 115)
(117 37)
(56 37)
(37 126)
(37 14)
(37 15)
(68 37)
(37 0)
(37 121)
(80 37)
(37 93)
(122 37)
(37 113)
(31 37)
(127 37)
(37 64)
(109 37)
(37 4)
(37 18)
(1 37)
(12 37)
(128 37)
(22 37)
(37 28)
(129 37)
(130 37)
(37 33)
(37 34)
(91 37)
(41 120)
(116 41)
(53 41)
(102 41)
(41 7)
(41 38)
(41 29)
(99 41)
(42 41)
(46 41)
(49 41)
(41 36)
(41 24)
(41 25)
(62 41)
(41 2)
(96 41)
(41 40)
(41 3)
(43 41)
(41 16)
(101 41)
(41 5)
(41 6)
(41 8)
(41 30)
(97 41)
(41 20)
(65 41)
(41 21)
(132 41)
(41 35)
(133 41)
(76 41)
(41 26)
(41 114)
(41 32)
(118 41)
(27 41)
(107 41)
(67 41)
(110 41)
(41 39)
(41 9)
(78 41)
(81 41)
(92 41)
(41 134)
(89 41)
(41 131)
(94 10)
(95 11)
(13 96)
(97 14)
(51 98)
(15 99)
(16 17)
(100 17)
(18 16)
(101 58)
(102 103)
(61 104)
(20 105)
(106 107)
(22 21)
(24 108)
(109 110)
(111 24)
(112 25)
(73 113)
(74 27)
(26 28)
(114 28)
(104 29)
(30 115)
(19 30)
(116 31)
(12 84)
(117 32)
(33 118)
(119 33)
(34 120)
(35 121)
(22 35)
(122 36)
(38 126)
(85 38)
(39 23)
(123 131)
(40 37)
(41 125)
(124 41)
)

// concaveStart mixedStart nonFeatureStart
10 10 42
// internalStart flatStart openStart multipleStart
162 204 204 204
// normals

269
(
(0.167893 0.985805 0)
(0.157051 -0.987591 0)
(-0.999118 -0.0419951 0)
(0.994048 0.108945 0)
(-0.157051 0.987591 0)
(-0.916207 -0.400705 0)
(0.882944 0.469478 0)
(-0.916207 -0.400705 0)
(0.944001 0.329943 0)
(0.865427 -0.501034 0)
(-0.895706 0.444647 0)
(0.865427 -0.501034 0)
(-0.826495 0.562945 0)
(-0.273719 -0.96181 -0)
(0.273719 0.96181 0)
(0.342882 0.939379 0)
(-0.342882 -0.939379 0)
(0.202493 0.979284 -0)
(-0.202493 -0.979284 0)
(-0.12868 -0.991686 0)
(0.12868 0.991686 0)
(-0.977882 0.209159 0)
(0.977882 -0.209159 0)
(0.967953 -0.251132 0)
(-0.967953 0.251132 0)
(0.986232 -0.165367 0)
(-0.986232 0.165367 0)
(-0.837708 0.546118 0)
(0.875089 -0.483962 0)
(-0.882944 -0.469478 -0)
(0.844773 0.535124 0)
(-0.754922 -0.655814 -0)
(0.801919 0.597433 0)
(-0.754922 -0.655814 0)
(0.704749 0.709457 0)
(-0.801919 -0.597433 0)
(-0.994048 -0.108945 -0)
(0.983322 0.181875 0)
(-0.944001 -0.329943 -0)
(0.966655 0.256081 0)
(-0.937194 0.348808 0)
(0.937194 -0.348808 0)
(-0.919049 0.394144 0)
(-0.497916 -0.867225 0)
(0.497916 0.867225 0)
(0.884398 0.466733 0)
(-0.947922 -0.318502 -0)
(0.947922 0.318502 0)
(-0.978258 -0.207393 0)
(-0.996192 0.0871823 0)
(0.996192 -0.0871823 0)
(-0.998952 0.0457751 0)
(0.999842 -0.0177556 0)
(-0.999842 0.0177556 0)
(0.997465 -0.0711616 0)
(-0.924664 0.380783 0)
(0.902795 -0.430072 0)
(-0.417017 0.908899 0)
(0.417017 -0.908899 0)
(0.191717 -0.98145 0)
(-0.191717 0.98145 0)
(-0.277035 0.96086 0)
(0.277035 -0.96086 0)
(-0.36102 0.932558 0)
(0.443435 -0.896306 0)
(-0.523251 0.852178 0)
(0.963147 -0.268976 0)
(-0.951546 0.307505 0)
(0.963147 -0.268976 0)
(-0.97251 0.232863 0)
(0.66456 -0.747235 0)
(-0.596582 0.802552 0)
(0.826495 -0.562945 0)
(-0.77979 0.626041 0)
(-0.473855 -0.880603 -0)
(0.473855 0.880603 0)
(-0.108021 0.994149 0)
(0.108021 -0.994149 0)
(0.998366 0.05714 0)
(-0.999999 -0.00143096 0)
(0.998366 0.05714 0)
(-0.992421 -0.122887 0)
(-0.992766 0.120064 0)
(0.992766 -0.120064 0)
(0.997465 -0.0711616 0)
(0.726014 -0.68768 0)
(-0.726014 0.68768 0)
(0.998952 -0.0457751 0)
(-0.999999 -0.00143096 -0)
(0.986814 -0.161861 0)
(-0.980421 0.196912 0)
(0.596582 -0.802552 0)
(-0.167893 -0.985805 -0)
(0.999118 0.0419951 0)
(-0.0519674 -0.998649 0)
(0.837708 -0.546118 0)
(-0.875089 0.483962 0)
(-0.785533 0.61882 0)
(0.785533 -0.61882 0)
(0.844773 0.535124 0)
(0.983322 0.181875 0)
(-0.966655 -0.256081 0)
(0.951546 -0.307505 0)
(-0.751298 -0.659963 -0)
(-0.751298 -0.659963 0)
(0.884398 0.466733 0)
(0.941757 -0.336295 0)
(-0.956143 0.292901 0)
(0.941757 -0.336295 0)
(-0.924664 0.380783 0)
(0.956143 -0.292901 0)
(-0.902795 0.430072 0)
(-0.594679 0.803963 0)
(0.36102 -0.932558 0)
(-0.895706 0.444647 0)
(0.919049 -0.394144 0)
(-0.66456 0.747235 0)
(0.409436 0.912339 0)
(-0.534725 -0.845026 0)
(0.534725 0.845026 0)
(-0.0270407 0.999634 0)
(0.0270407 -0.999634 0)
(-0.992421 -0.122887 -0)
(0.978258 0.207393 0)
(0.709631 -0.704574 0)
(-0.709631 0.704574 0)
(-0.594679 0.803963 0)
(0 0 -1)
(0 0 1)
(0 0 -1)
(0 0 1)
(0 0 -1)
(0 0 1)
(0 0 -1)
(0 0 1)
(0 0 -1)
(0 0 1)
(0 0 -1)
(0 0 1)
(0 0 1)
(0 0 -1)
(0 0 -1)
(0 0 1)
(0 0 -1)
(0 0 -1)
(0 0 -1)
(0 0 1)
(0 0 1)
(0 0 -1)
(0 0 -1)
(0 0 -1)
(0 0 -1)
(0 0 1)
(0 0 -1)
(0 0 1)
(0 0 -1)
(0 0 1)
(0 0 1)
(0 0 -1)
(0 0 1)
(0 0 -1)
(0 0 -1)
(0 0 1)
(0 0 -1)
(0 0 1)
(0 0 1)
(0 0 -1)
(0 0 -1)
(0 0 1)
(0 0 -1)
(0 0 1)
(0 0 -1)
(0 0 -1)
(0 0 1)
(0 0 1)
(0 0 -1)
(0 0 1)
(0 0 -1)
(0 0 1)
(0 0 -1)
(0 0 1)
(0 0 -1)
(0 0 -1)
(0 0 1)
(0 0 -1)
(0 0 1)
(0 0 1)
(0 0 -1)
(0 0 -1)
(0 0 -1)
(0 0 1)
(0 0 -1)
(0 0 1)
(0 0 1)
(0 0 -1)
(0 0 1)
(0.77979 -0.626041 0)
(-0.992106 0.125405 0)
(0.986814 -0.161861 0)
(-0.523251 0.852178 0)
(0 0 1)
(0 0 -1)
(0 0 1)
(0 0 -1)
(0 0 -1)
(0 0 1)
(0 0 1)
(0 0 -1)
(0 0 -1)
(0 0 1)
(0 0 -1)
(0 0 1)
(0 0 1)
(0 0 -1)
(0 0 1)
(0 0 -1)
(0 0 -1)
(0 0 1)
(0 0 -1)
(0 0 1)
(0 0 -1)
(0 -0 1)
(0 0 1)
(0 0 -1)
(0 0 -1)
(0 0 1)
(0 0 -1)
(0 0 1)
(0 0 -1)
(0 0 1)
(0 0 1)
(0 0 1)
(0 0 -1)
(0 0 1)
(0 0 1)
(0 0 -1)
(0 0 1)
(0 0 -1)
(0 0 -1)
(0 0 1)
(0 0 -1)
(0 0 -1)
(0 0 1)
(0 0 -1)
(0 0 -1)
(0 0 1)
(0 0 1)
(0 0 -1)
(0 0 -1)
(0 0 1)
(0 0 -1)
(0 0 -1)
(0 0 1)
(0 0 -1)
(0 0 1)
(0 0 1)
(0 0 1)
(0 0 1)
(0 0 -1)
(0 0 1)
(0 0 1)
(0 0 -1)
(0 0 1)
(0 0 -1)
(0 0 1)
(0 0 1)
(0.704749 0.709457 0)
(-0.651052 -0.759033 -0)
(0.651052 0.759033 0)
)

// normal volume types

269
(
0
0
0
0
0
0
0
0
0
0
0
0
0
0
0
0
0
0
0
0
0
0
0
0
0
0
0
0
0
0
0
0
0
0
0
0
0
0
0
0
0
0
0
0
0
0
0
0
0
0
0
0
0
0
0
0
0
0
0
0
0
0
0
0
0
0
0
0
0
0
0
0
0
0
0
0
0
0
0
0
0
0
0
0
0
0
0
0
0
0
0
0
0
0
0
0
0
0
0
0
0
0
0
0
0
0
0
0
0
0
0
0
0
0
0
0
0
0
0
0
0
0
0
0
0
0
0
0
0
0
0
0
0
0
0
0
0
0
0
0
0
0
0
0
0
0
0
0
0
0
0
0
0
0
0
0
0
0
0
0
0
0
0
0
0
0
0
0
0
0
0
0
0
0
0
0
0
0
0
0
0
0
0
0
0
0
0
0
0
0
0
0
0
0
0
0
0
0
0
0
0
0
0
0
0
0
0
0
0
0
0
0
0
0
0
0
0
0
0
0
0
0
0
0
0
0
0
0
0
0
0
0
0
0
0
0
0
0
0
0
0
0
0
0
0
0
0
0
0
0
0
0
0
0
0
0
0
0
0
0
0
0
0
0
0
0
0
0
0
)

// normalDirections

204
(
2{1}
2{1}
2{1}
2{1}
2{1}
2{1}
2{1}
2{1}
2{1}
2{1}
2{1}
2{1}
2{1}
2{1}
2{1}
2{1}
2{1}
2{1}
2{1}
2{1}
2{1}
2{1}
2{1}
2{1}
2{1}
2{1}
2{1}
2{1}
2{1}
2{1}
2{1}
2{1}
2{1}
2{1}
2{1}
2{1}
2{1}
2{1}
2{1}
2{1}
2{1}
2{1}
2{1}
2{1}
2{1}
2{1}
2{1}
2{1}
2{1}
2{1}
2{1}
2{1}
2{1}
2{1}
2{1}
2{1}
2{1}
2{1}
2{1}
2{1}
2{1}
2{1}
2{1}
2{1}
2{1}
2{1}
2{1}
2{1}
2{1}
2{1}
2{1}
2{1}
2{1}
2{1}
2{1}
2{1}
2{1}
2{1}
2{1}
2{1}
2{1}
2{1}
2{1}
2{1}
2{1}
2{1}
2{1}
2{1}
2{1}
2{1}
2{1}
2{1}
2{1}
2{1}
2{1}
2{1}
2{1}
2{1}
2{1}
2{1}
2{1}
2{1}
2{1}
2{1}
2{1}
2{1}
2{1}
2{1}
2{1}
2{1}
2{1}
2{1}
2{1}
2{1}
2{1}
2{1}
2{1}
2{1}
2{1}
2{1}
2{1}
2{1}
2{1}
2{1}
2{1}
2{1}
2{1}
2{1}
2{1}
2{1}
2{1}
2{1}
2{1}
2{1}
2{1}
2{1}
2{1}
2{1}
2{1}
2{1}
2{1}
2{1}
2{1}
2{1}
2{1}
2{1}
2{1}
2{1}
2{1}
2{1}
2{1}
2{1}
2{1}
2{1}
2{1}
2{1}
2{1}
2{1}
2{1}
2{1}
2{1}
2{1}
2{1}
2{1}
2{1}
2{1}
2{1}
2{1}
2{1}
2{1}
2{1}
2{1}
2{1}
2{1}
2{1}
2{1}
2{1}
2{1}
2{1}
2{1}
2{1}
2{1}
2{1}
2{1}
2{1}
2{1}
2{1}
2{1}
2{1}
2{1}
2{1}
2{1}
2{1}
2{1}
2{1}
2{1}
2{1}
2{1}
2{1}
2{1}
2{1}
2{1}
2{1}
2{1}
)

// edgeNormals

204
(
2(0 1)
2(2 3)
2(4 1)
2(5 6)
2(7 8)
2(9 10)
2(11 12)
2(13 14)
2(15 16)
2(17 18)
2(19 20)
2(21 22)
2(23 24)
2(25 26)
2(27 28)
2(29 6)
2(29 30)
2(31 32)
2(33 34)
2(32 35)
2(36 3)
2(36 37)
2(8 38)
2(38 39)
2(40 41)
2(41 42)
2(43 44)
2(45 46)
2(47 48)
2(49 50)
2(50 51)
2(52 53)
2(53 54)
2(55 56)
2(57 58)
2(59 60)
2(59 61)
2(62 63)
2(64 65)
2(66 67)
2(68 69)
2(70 71)
2(72 73)
2(74 75)
2(76 77)
2(78 79)
2(80 81)
2(82 83)
2(82 84)
2(85 86)
2(87 88)
2(89 90)
2(71 91)
2(39 101)
2(70 116)
2(124 125)
2(127 128)
2(129 130)
2(131 132)
2(133 134)
2(135 136)
2(137 138)
2(139 140)
2(139 141)
2(142 143)
2(142 144)
2(145 146)
2(145 132)
2(147 148)
2(147 149)
2(134 150)
2(151 152)
2(153 154)
2(155 156)
2(157 158)
2(159 160)
2(159 161)
2(143 162)
2(163 164)
2(163 165)
2(152 166)
2(167 168)
2(169 170)
2(171 170)
2(172 173)
2(150 156)
2(174 175)
2(176 177)
2(160 178)
2(149 165)
2(138 179)
2(140 180)
2(181 154)
2(182 128)
2(183 184)
2(183 166)
2(185 175)
2(186 187)
2(146 188)
2(161 162)
2(164 189)
2(184 190)
2(179 130)
2(191 192)
2(136 177)
2(188 180)
2(193 158)
2(178 189)
2(144 190)
2(194 173)
2(195 187)
2(141 168)
2(200 201)
2(202 203)
2(204 205)
2(206 207)
2(206 208)
2(209 203)
2(210 211)
2(212 213)
2(214 215)
2(216 217)
2(218 219)
2(220 221)
2(222 223)
2(224 225)
2(226 227)
2(228 229)
2(228 230)
2(231 232)
2(213 233)
2(234 208)
2(205 235)
2(236 237)
2(236 238)
2(237 239)
2(207 217)
2(227 240)
2(229 241)
2(242 243)
2(244 245)
2(244 246)
2(233 247)
2(245 248)
2(235 221)
2(249 250)
2(249 251)
2(250 252)
2(253 254)
2(253 255)
2(256 251)
2(243 246)
2(257 258)
2(223 225)
2(259 258)
2(260 247)
2(252 232)
2(211 261)
2(262 263)
2(262 261)
2(264 248)
2(263 265)
2(92 0)
2(93 2)
2(14 16)
2(17 19)
2(20 94)
2(22 24)
2(95 27)
2(96 28)
2(97 98)
2(99 35)
2(100 101)
2(40 102)
2(103 44)
2(104 105)
2(46 47)
2(106 107)
2(108 109)
2(107 110)
2(56 111)
2(58 112)
2(60 77)
2(61 62)
2(113 63)
2(67 102)
2(114 115)
2(42 115)
2(116 85)
2(12 72)
2(117 74)
2(75 118)
2(119 118)
2(120 121)
2(122 123)
2(48 123)
2(124 126)
2(86 196)
2(196 73)
2(87 51)
2(197 198)
2(199 91)
2(266 267)
2(267 268)
)

// featurePointNormals

42
(
5(5 6 29 138 179)
5(7 8 38 179 130)
6(13 14 17 18 228 229)
6(21 22 25 26 213 233)
6(25 26 82 83 164 189)
5(29 6 30 236 238)
5(31 32 35 237 239)
5(36 3 37 206 208)
6(8 38 39 101 207 217)
5(82 83 84 260 247)
6(0 1 4 151 152 92)
6(2 3 36 147 149 93)
5(11 12 191 192 72)
6(13 14 15 16 135 136)
6(17 18 19 20 176 177)
6(21 22 23 24 160 178)
6(205 235 95 27 97 98)
6(27 28 142 144 95 96)
6(124 125 184 190 97 98)
6(40 41 42 169 170 115)
5(43 44 242 243 103)
5(45 46 244 246 47)
6(47 48 188 180 46 123)
6(49 50 51 167 168 87)
5(222 223 106 107 110)
5(55 56 224 225 111)
6(59 60 61 249 251 62)
5(76 77 256 251 60)
6(62 63 193 158 61 113)
5(66 67 210 211 102)
5(227 240 114 115 42)
6(85 86 70 116 185 175)
5(74 75 253 254 117)
6(74 75 194 173 118 119)
6(76 77 195 187 120 121)
5(245 248 122 123 48)
5(124 125 220 221 126)
4(127 128 199 91)
6(85 86 209 203 196 73)
5(87 88 259 258 51)
5(71 91 231 232 199)
5(200 201 266 267 268)
)

// featurePointEdges

42
(
3(90 15 3)
3(4 22 102)
3(7 127 9)
3(11 130 13)
3(13 100 47)
3(15 134 16)
3(135 19 17)
3(20 116 21)
4(22 23 53 136)
3(47 155 48)
4(162 0 2 71)
4(163 1 20 69)
3(6 189 103)
4(7 164 8 60)
4(9 87 10 165)
4(11 167 12 88)
3(168 132 170)
4(168 14 169 65)
3(170 101 55)
4(24 25 187 82)
3(139 26 174)
3(141 176 27)
4(176 28 195 105)
4(29 30 199 81)
3(124 179 177)
3(125 180 33)
4(35 146 183 36)
3(182 44 150)
4(183 37 184 106)
3(118 185 39)
3(186 187 137)
4(54 188 49 96)
3(148 43 190)
4(43 191 192 109)
3(193 110 44)
3(143 195 194)
3(55 123 196)

57
(
81
111
63
62
91
105
98
66
67
58
71
80
95
94
101
108
65
64
77
99
76
75
88
107
100
78
79
89
69
68
57
102
90
61
73
85
70
59
109
84
60
104
87
97
110
74
106
201
96
86
103
83
82
72
92
93
56
)

4(49 197 198 117)
3(199 154 50)
3(201 52 129)

52
(
150
146
145
147
156
129
113
117
122
137
126
118
157
159
158
161
152
154
160
143
140
141
151
139
120
123
144
132
114
125
153
124
119
130
142
155
131
116
115
136
121
134
133
135
202
203
149
148
128
127
138
112
)

)

// regionEdges
0()


// ************************************************************************* //
