/*--------------------------------*- C++ -*----------------------------------*\
  =========                 |
  \\      /  F ield         | OpenFOAM: The Open Source CFD Toolbox
   \\    /   O peration     | Website:  https://openfoam.org
    \\  /    A nd           | Version:  7
     \\/     M anipulation  |
\*---------------------------------------------------------------------------*/
FoamFile
{
    version     2.0;
    format      ascii;
    class       extendedFeatureEdgeMesh;
    location    "constant/extendedFeatureEdgeMesh";
    object      model.extendedFeatureEdgeMesh;
}
// * * * * * * * * * * * * * * * * * * * * * * * * * * * * * * * * * * * * * //

// points

118
(
(0.0565 0.0505 1)
(0.031333 0.064721 0)
(0.034817 0.043786 0)
(0.032733 0.049017 1)
(0.0323 0.050403 0)
(0.03542 0.04262 1)
(0.052436 0.026682 0)
(0.060327 0.036533 1)
(0.05722 0.049879 0)
(0.057862 0.049107 1)
(0.058427 0.0482 1)
(0.058917 0.047174 0)
(0.03963 0.037489 0)
(0.054016 0.025771 0)
(0.055701 0.050962 1)
(0.059333 0.046044 1)
(0.038865 0.038149 1)
(0.038124 0.038868 0)
(0.057341 0.026515 0)
(0.060157 0.042187 1)
(0.033707 0.046313 1)
(0.031906 0.051795 0)
(0.03155 0.05318 1)
(0.030249 0.062484 1)
(0.03025 0.061612 0)
(0.030298 0.063235 0)
(0.030398 0.063851 1)
(0.030727 0.057166 0)
(0.05476 0.025543 1)
(0.058365 0.028019 1)
(0.05676 0.025995 1)
(0.03055 0.06432 1)
(0.059952 0.043535 0)
(0.060215 0.035132 0)
(0.060043 0.033766 1)
(0.059815 0.032452 0)
(0.060369 0.039382 0)
(0.059532 0.031205 1)
(0.030396 0.059555 1)
(0.030959 0.055878 1)
(0.0565 0.0505 0)
(0.031016 0.064768 0)
(0.031333 0.064721 1)
(0.058427 0.0482 0)
(0.034245 0.045021 1)
(0.034817 0.043786 1)
(0.036053 0.041536 1)
(0.036053 0.041536 0)
(0.036716 0.040547 0)
(0.036716 0.040547 1)
(0.056135 0.025651 0)
(0.056135 0.025651 1)
(0.057877 0.027195 1)
(0.057341 0.026515 1)
(0.060157 0.042187 0)
(0.032733 0.049017 0)
(0.033202 0.047649 0)
(0.033202 0.047649 1)
(0.0323 0.050403 1)
(0.034245 0.045021 0)
(0.03542 0.04262 0)
(0.03025 0.061612 1)
(0.031234 0.054545 1)
(0.031234 0.054545 0)
(0.052436 0.026682 1)
(0.05324 0.026158 1)
(0.058365 0.028019 0)
(0.030398 0.063851 0)
(0.059952 0.043535 1)
(0.060379 0.037955 0)
(0.060327 0.036533 0)
(0.060215 0.035132 1)
(0.059815 0.032452 1)
(0.060369 0.039382 1)
(0.059532 0.031205 0)
(0.030396 0.059555 0)
(0.05722 0.049879 1)
(0.057862 0.049107 0)
(0.051608 0.02732 1)
(0.03963 0.037489 1)
(0.05324 0.026158 0)
(0.054016 0.025771 1)
(0.055701 0.050962 0)
(0.059677 0.044826 0)
(0.038865 0.038149 0)
(0.038124 0.038868 1)
(0.037407 0.039661 1)
(0.055467 0.025497 1)
(0.057877 0.027195 0)
(0.030756 0.06463 1)
(0.030756 0.06463 0)
(0.060296 0.040798 0)
(0.060296 0.040798 1)
(0.059194 0.03004 1)
(0.059194 0.03004 0)
(0.058805 0.028973 0)
(0.058805 0.028973 1)
(0.033707 0.046313 0)
(0.031906 0.051795 1)
(0.03155 0.05318 0)
(0.030539 0.058396 0)
(0.030539 0.058396 1)
(0.030727 0.057166 1)
(0.030299 0.060632 1)
(0.05476 0.025543 0)
(0.055467 0.025497 0)
(0.05676 0.025995 0)
(0.03055 0.06432 0)
(0.059677 0.044826 1)
(0.060379 0.037955 1)
(0.060043 0.033766 0)
(0.030299 0.060632 0)
(0.059333 0.046044 0)
(0.051608 0.02732 0)
(0.030249 0.062484 0)
(0.030959 0.055878 0)
(0.031016 0.064768 1)
(0.058917 0.047174 1)
)

// edges

180
(
(0 8)
(40 0)
(9 8)
(41 42)
(42 1)
(10 43)
(1 14)
(44 2)
(2 45)
(46 47)
(48 49)
(16 17)
(50 51)
(18 52)
(53 18)
(54 19)
(3 55)
(56 57)
(4 3)
(58 4)
(59 20)
(5 2)
(60 5)
(23 24)
(24 61)
(62 63)
(6 64)
(65 6)
(29 66)
(31 67)
(32 68)
(69 7)
(7 70)
(33 7)
(71 33)
(72 35)
(36 73)
(37 74)
(38 75)
(63 39)
(13 28)
(35 34)
(13 36)
(36 104)
(77 36)
(36 8)
(60 36)
(36 47)
(36 12)
(84 36)
(18 36)
(56 36)
(36 55)
(99 36)
(36 25)
(1 36)
(36 82)
(36 6)
(33 36)
(36 70)
(36 2)
(36 32)
(40 36)
(36 66)
(36 11)
(36 24)
(111 36)
(48 36)
(36 17)
(36 90)
(36 106)
(112 36)
(36 97)
(36 110)
(107 36)
(113 36)
(36 74)
(105 36)
(95 36)
(54 36)
(59 36)
(4 36)
(36 21)
(114 36)
(36 75)
(36 115)
(35 36)
(27 36)
(9 39)
(39 76)
(71 39)
(39 34)
(26 39)
(39 10)
(53 39)
(39 30)
(116 39)
(0 39)
(39 14)
(58 39)
(39 98)
(39 29)
(39 7)
(108 39)
(39 15)
(79 39)
(85 39)
(39 86)
(19 39)
(39 68)
(117 39)
(39 20)
(45 39)
(39 37)
(39 38)
(39 16)
(65 39)
(39 64)
(39 31)
(39 3)
(49 39)
(22 39)
(39 5)
(39 23)
(51 39)
(39 28)
(96 39)
(39 73)
(57 39)
(61 39)
(109 39)
(72 39)
(8 76)
(77 9)
(11 10)
(78 12)
(12 79)
(80 81)
(81 13)
(14 82)
(15 11)
(83 15)
(16 12)
(84 16)
(17 85)
(86 17)
(87 50)
(52 88)
(89 90)
(19 91)
(91 92)
(93 94)
(95 96)
(20 97)
(21 98)
(22 21)
(99 22)
(25 23)
(26 25)
(67 26)
(100 101)
(102 27)
(103 24)
(28 104)
(105 28)
(88 29)
(30 106)
(18 30)
(107 31)
(19 32)
(108 32)
(109 69)
(34 110)
(33 34)
(92 36)
(35 37)
(94 37)
(111 38)
(27 39)
(39 115)
)

// concaveStart mixedStart nonFeatureStart
8 8 40
// internalStart flatStart openStart multipleStart
132 180 180 180
// normals

232
(
(-0.653127 -0.757248 0)
(0.653127 0.757248 0)
(-0.500566 -0.865699 0)
(0.768875 0.639399 -0)
(-0.768875 -0.639399 0)
(-0.146657 -0.989187 0)
(0.146657 0.989187 0)
(-0.491672 -0.87078 0)
(0.848786 0.528736 0)
(-0.902372 -0.430959 0)
(0.491672 0.87078 0)
(0.9074 0.420269 0)
(-0.9074 -0.420269 0)
(0.888249 0.459361 0)
(-0.830626 -0.55683 -0)
(0.863548 0.504266 0)
(-0.830626 -0.55683 0)
(0.788536 0.614989 0)
(-0.696372 -0.717681 -0)
(0.696372 0.717681 0)
(0.224646 -0.97444 0)
(-0.482187 0.876068 0)
(-0.785354 0.619047 0)
(0.785354 -0.619047 0)
(-0.666907 0.745141 0)
(0.99503 0.0995732 0)
(-0.988633 -0.15035 0)
(-0.945952 -0.324306 -0)
(0.954504 0.298198 0)
(-0.945952 -0.324306 0)
(0.935405 0.353578 0)
(-0.954504 -0.298198 0)
(0.9622 0.272345 0)
(-0.923161 -0.384412 -0)
(0.923161 0.384412 0)
(-0.888249 -0.459361 -0)
(0.863548 0.504266 0)
(0.999999 0.00114706 0)
(-0.999999 -0.00114706 0)
(0.998752 0.0499384 0)
(-0.974234 -0.225538 -0)
(0.979376 0.202046 0)
(-0.610356 -0.792127 0)
(0.546015 0.837776 -0)
(-0.546015 -0.837776 0)
(0.90807 -0.418818 0)
(-0.860428 0.509572 0)
(0.951287 -0.308305 0)
(-0.951287 0.308305 0)
(0.988633 0.15035 -0)
(-0.978057 -0.208337 0)
(0.999332 -0.0365421 0)
(-0.999332 0.0365421 0)
(-0.99682 0.0796891 0)
(0.99682 -0.0796891 0)
(-0.992166 0.124929 0)
(0.985278 -0.17096 0)
(-0.975202 0.221317 0)
(0.999975 0.00700662 -0)
(-0.998674 -0.0514858 0)
(0.975202 -0.221317 0)
(-0.960395 0.278641 0)
(-0.992474 -0.122454 -0)
(0.995969 0.0897011 0)
(-0.979376 -0.202046 -0)
(0.848786 0.528736 0)
(0.902372 0.430959 -0)
(-0.647194 -0.762325 -0)
(0.647194 0.762325 0)
(-0.653233 -0.757157 0)
(-0.446291 -0.894888 0)
(0.446291 0.894888 0)
(-0.293001 -0.956112 0)
(-0.500566 -0.865699 -0)
(-0.938428 -0.345474 -0)
(0.938428 0.345474 0)
(0.962354 0.271799 -0)
(-0.962354 -0.271799 0)
(0.653233 0.757157 0)
(-0.741759 -0.670667 0)
(0.741759 0.670667 0)
(-0.224646 0.97444 0)
(0.860428 -0.509572 0)
(0.468824 -0.883291 0)
(-0.832878 0.553457 0)
(-0.99503 -0.0995732 0)
(0.998674 0.0514858 0)
(-0.939511 0.34252 0)
(0.960395 -0.278641 0)
(-0.939511 0.34252 0)
(0.90807 -0.418818 0)
(0.935405 0.353578 0)
(0.9622 0.272345 -0)
(-0.968517 -0.248947 0)
(0.968517 0.248947 0)
(-0.974234 -0.225538 0)
(-0.997878 0.0651087 0)
(0.997878 -0.0651087 0)
(-0.987078 0.16024 0)
(0.987078 -0.16024 0)
(0.98852 0.151091 -0)
(-0.992474 -0.122454 0)
(0.98852 0.151091 0)
(-0.984162 -0.177271 0)
(-0.998752 -0.0499384 -0)
(0.293001 0.956112 0)
(-0.0649265 -0.99789 -0)
(0.0649265 0.99789 0)
(-0.482187 0.876068 0)
(0.666907 -0.745141 0)
(-0.832878 0.553457 0)
(0.978057 0.208337 0)
(0.999975 0.00700662 0)
(-0.985278 0.17096 0)
(0.992166 -0.124929 0)
(0 0 -1)
(0 0 1)
(0 0 1)
(0 0 -1)
(0 0 1)
(0 0 1)
(0 0 -1)
(0 0 1)
(0 0 1)
(0 0 -1)
(0 0 1)
(0 0 1)
(0 0 -1)
(0 0 1)
(0 0 1)
(0 0 -1)
(0 0 -1)
(0 0 1)
(0 0 -1)
(0 0 -1)
(0 0 1)
(0 0 1)
(0 0 -1)
(0 0 -1)
(0 0 1)
(0 0 -1)
(0 0 -1)
(0 0 1)
(0 0 1)
(0 0 -1)
(0 0 1)
(0 0 -1)
(0 0 -1)
(0 0 1)
(0 0 1)
(0 0 -1)
(0 0 1)
(0 0 -1)
(0 0 -1)
(0 0 -1)
(-0 0 -1)
(0 0 -1)
(0 0 1)
(0 0 -1)
(0 0 1)
(0 0 1)
(0 0 -1)
(0 0 -1)
(0 0 -1)
(0 0 1)
(0 0 -1)
(0 0 -1)
(0 0 1)
(0 0 1)
(0 0 1)
(0 0 1)
(0 0 -1)
(0 0 1)
(-0.995969 -0.0897011 0)
(0 0 -1)
(0 0 1)
(0 0 1)
(0 0 1)
(0 0 -1)
(0 0 -1)
(0 0 -1)
(0 0 1)
(0 0 -1)
(0 0 1)
(0 0 -1)
(0 0 -1)
(0 0 1)
(0 0 -1)
(0 0 -1)
(-0 0 1)
(0 0 1)
(0 0 -1)
(0 0 -1)
(0 0 -1)
(0 0 1)
(0 0 1)
(0 0 -1)
(0 0 1)
(0 0 1)
(0 0 -1)
(0 0 1)
(0 0 1)
(0 0 -1)
(0 0 -1)
(0 0 1)
(0 0 -1)
(0 0 1)
(0 0 -1)
(0 0 1)
(0 0 -1)
(0 0 -1)
(0 0 1)
(0 0 -1)
(0 0 1)
(0 0 -1)
(0 0 1)
(0 0 -1)
(0 0 -1)
(0 0 1)
(0 0 1)
(0 0 1)
(0 0 1)
(0 0 -1)
(0 0 1)
(0 0 1)
(0 0 1)
(0 0 -1)
(0 0 -1)
(0 0 1)
(0 0 -1)
(0 0 -1)
(0.984162 0.177271 0)
)

// normal volume types

232
(
0
0
0
0
0
0
0
0
0
0
0
0
0
0
0
0
0
0
0
0
0
0
0
0
0
0
0
0
0
0
0
0
0
0
0
0
0
0
0
0
0
0
0
0
0
0
0
0
0
0
0
0
0
0
0
0
0
0
0
0
0
0
0
0
0
0
0
0
0
0
0
0
0
0
0
0
0
0
0
0
0
0
0
0
0
0
0
0
0
0
0
0
0
0
0
0
0
0
0
0
0
0
0
0
0
0
0
0
0
0
0
0
0
0
0
0
0
0
0
0
0
0
0
0
0
0
0
0
0
0
0
0
0
0
0
0
0
0
0
0
0
0
0
0
0
0
0
0
0
0
0
0
0
0
0
0
0
0
0
0
0
0
0
0
0
0
0
0
0
0
0
0
0
0
0
0
0
0
0
0
0
0
0
0
0
0
0
0
0
0
0
0
0
0
0
0
0
0
0
0
0
0
0
0
0
0
0
0
0
0
0
0
0
0
0
0
0
0
0
0
0
0
0
0
0
0
0
0
0
0
0
0
)

// normalDirections

180
(
2{1}
2{1}
2{1}
2{1}
2{1}
2{1}
2{1}
2{1}
2{1}
2{1}
2{1}
2{1}
2{1}
2{1}
2{1}
2{1}
2{1}
2{1}
2{1}
2{1}
2{1}
2{1}
2{1}
2{1}
2{1}
2{1}
2{1}
2{1}
2{1}
2{1}
2{1}
2{1}
2{1}
2{1}
2{1}
2{1}
2{1}
2{1}
2{1}
2{1}
2{1}
2{1}
2{1}
2{1}
2{1}
2{1}
2{1}
2{1}
2{1}
2{1}
2{1}
2{1}
2{1}
2{1}
2{1}
2{1}
2{1}
2{1}
2{1}
2{1}
2{1}
2{1}
2{1}
2{1}
2{1}
2{1}
2{1}
2{1}
2{1}
2{1}
2{1}
2{1}
2{1}
2{1}
2{1}
2{1}
2{1}
2{1}
2{1}
2{1}
2{1}
2{1}
2{1}
2{1}
2{1}
2{1}
2{1}
2{1}
2{1}
2{1}
2{1}
2{1}
2{1}
2{1}
2{1}
2{1}
2{1}
2{1}
2{1}
2{1}
2{1}
2{1}
2{1}
2{1}
2{1}
2{1}
2{1}
2{1}
2{1}
2{1}
2{1}
2{1}
2{1}
2{1}
2{1}
2{1}
2{1}
2{1}
2{1}
2{1}
2{1}
2{1}
2{1}
2{1}
2{1}
2{1}
2{1}
2{1}
2{1}
2{1}
2{1}
2{1}
2{1}
2{1}
2{1}
2{1}
2{1}
2{1}
2{1}
2{1}
2{1}
2{1}
2{1}
2{1}
2{1}
2{1}
2{1}
2{1}
2{1}
2{1}
2{1}
2{1}
2{1}
2{1}
2{1}
2{1}
2{1}
2{1}
2{1}
2{1}
2{1}
2{1}
2{1}
2{1}
2{1}
2{1}
2{1}
2{1}
2{1}
2{1}
2{1}
2{1}
2{1}
2{1}
2{1}
2{1}
2{1}
2{1}
2{1}
2{1}
)

// edgeNormals

180
(
2(0 1)
2(1 2)
2(3 4)
2(5 6)
2(6 7)
2(8 9)
2(7 10)
2(11 12)
2(12 13)
2(14 15)
2(16 17)
2(18 19)
2(20 21)
2(22 23)
2(23 24)
2(25 26)
2(27 28)
2(29 30)
2(28 31)
2(31 32)
2(33 34)
2(35 13)
2(35 36)
2(37 38)
2(38 39)
2(40 41)
2(42 43)
2(44 43)
2(45 46)
2(47 48)
2(49 50)
2(51 52)
2(51 53)
2(53 54)
2(54 55)
2(56 57)
2(58 59)
2(60 61)
2(62 63)
2(41 64)
2(72 105)
2(113 56)
2(115 116)
2(115 117)
2(118 119)
2(118 120)
2(121 122)
2(121 123)
2(124 125)
2(124 126)
2(127 128)
2(129 130)
2(129 131)
2(132 133)
2(134 135)
2(136 137)
2(136 138)
2(139 140)
2(141 142)
2(141 143)
2(122 144)
2(145 146)
2(120 138)
2(147 148)
2(149 150)
2(151 152)
2(151 153)
2(154 123)
2(155 126)
2(156 157)
2(158 128)
2(150 159)
2(130 160)
2(142 161)
2(162 157)
2(125 140)
2(163 164)
2(165 117)
2(148 166)
2(167 146)
2(160 144)
2(131 168)
2(133 168)
2(152 135)
2(169 153)
2(170 171)
2(161 164)
2(172 171)
2(174 175)
2(174 176)
2(177 178)
2(177 179)
2(180 181)
2(175 182)
2(183 184)
2(183 185)
2(186 187)
2(176 188)
2(189 188)
2(190 191)
2(190 192)
2(193 194)
2(178 195)
2(196 197)
2(196 198)
2(199 200)
2(201 202)
2(201 203)
2(204 205)
2(197 205)
2(182 198)
2(206 207)
2(208 209)
2(210 211)
2(212 213)
2(202 200)
2(214 215)
2(216 215)
2(217 181)
2(191 218)
2(219 203)
2(192 220)
2(221 209)
2(222 223)
2(224 185)
2(225 226)
2(227 194)
2(228 229)
2(218 207)
2(223 230)
2(229 195)
2(179 211)
2(0 3)
2(4 65)
2(66 9)
2(67 68)
2(68 69)
2(70 71)
2(71 72)
2(73 10)
2(74 75)
2(76 77)
2(78 69)
2(78 18)
2(19 79)
2(80 79)
2(81 20)
2(22 82)
2(83 84)
2(85 25)
2(85 86)
2(87 88)
2(89 90)
2(91 33)
2(92 93)
2(93 94)
2(94 95)
2(96 97)
2(98 99)
2(99 48)
2(100 101)
2(102 103)
2(104 39)
2(105 106)
2(106 107)
2(46 82)
2(108 109)
2(24 109)
2(47 110)
2(26 49)
2(111 50)
2(52 112)
2(113 114)
2(114 55)
2(86 59)
2(60 57)
2(88 61)
2(173 63)
2(103 231)
2(231 64)
)

// featurePointNormals

40
(
5(0 1 2 176 188)
5(6 7 10 136 137)
6(11 12 13 35 122 144)
5(27 28 31 191 218)
5(28 31 32 131 168)
5(35 13 36 221 209)
5(42 43 44 139 140)
6(51 52 53 54 178 195)
6(0 1 3 4 118 120)
5(3 4 174 175 65)
5(8 9 175 182 66)
6(149 150 66 9 74 75)
6(124 125 67 68 69 78)
5(72 105 115 116 71)
5(7 10 189 188 73)
6(196 198 74 75 76 77)
6(18 19 202 200 78 69)
6(18 19 155 126 79 80)
6(22 23 24 127 128 109)
6(25 26 204 205 85 49)
5(33 34 206 207 91)
5(133 168 92 93 94)
5(192 220 93 94 95)
6(37 38 222 223 96 97)
6(37 38 39 151 152 104)
6(134 135 96 97 98 99)
5(180 181 98 99 48)
5(172 171 102 103 231)
6(72 105 225 226 106 107)
5(45 46 193 194 82)
5(183 185 108 109 24)
5(47 48 217 181 110)
6(49 50 145 146 26 111)
6(53 54 55 141 142 114)
6(113 56 177 179 114 55)
6(56 57 113 161 164 60)
5(58 59 115 116 86)
6(60 61 210 211 57 88)
5(62 63 212 213 173)
6(41 64 174 175 103 231)
)

// featurePointEdges

40
(
3(0 1 97)
3(4 6 55)
4(7 8 21 60)
3(119 18 16)
3(18 19 81)
3(21 122 22)
3(26 27 57)
4(31 102 33 32)
4(0 45 2 132)
3(2 133 88)
3(5 134 93)
3(134 64 140)
4(135 136 142 48)
3(138 40 42)
3(139 6 98)
3(140 104 141)
4(142 115 11 143)
4(11 144 145 68)
4(13 14 167 50)
4(149 15 169 108)
3(111 20 153)
3(82 155 154)
3(155 156 121)
3(23 123 157)
4(23 24 162 65)
3(157 54 158)
3(158 159 92)
3(87 178 161)
4(40 163 164 125)
3(101 165 28)
3(166 167 95)
3(29 118 168)
4(169 30 170 61)
4(33 34 173 58)
4(41 91 173 172)
4(41 35 175 86)

48
(
42
57
75
48
49
68
67
47
46
60
80
72
51
52
81
82
53
85
87
84
66
65
83
54
74
69
55
56
62
45
44
64
71
61
79
174
36
59
58
73
86
76
78
63
50
70
77
43
)

4(175 113 176 37)
3(38 177 114)

47
(
88
93
110
104
103
109
108
127
130
102
90
91
131
113
126
101
94
95
124
125
116
117
105
115
106
107
120
122
112
111
128
119
99
100
121
39
179
178
114
129
123
92
118
96
98
97
89
)

)

// regionEdges
0()


// ************************************************************************* //
