/*--------------------------------*- C++ -*----------------------------------*\
  =========                 |
  \\      /  F ield         | OpenFOAM: The Open Source CFD Toolbox
   \\    /   O peration     | Website:  https://openfoam.org
    \\  /    A nd           | Version:  7
     \\/     M anipulation  |
\*---------------------------------------------------------------------------*/
FoamFile
{
    version     2.0;
    format      ascii;
    class       polyBoundaryMesh;
    location    "constant/polyMesh";
    object      boundary;
}
// * * * * * * * * * * * * * * * * * * * * * * * * * * * * * * * * * * * * * //

5
(
    fixedWalls
    {
        type            wall;
        inGroups        List<word> 1(wall);
        nFaces          40;
        startFace       3083;
    }
    frontAndBack
    {
        type            empty;
        inGroups        List<word> 1(empty);
        nFaces          1190;
        startFace       3123;
    }
    right
    {
        type            patch;
        nFaces          20;
        startFace       4313;
    }
    left
    {
        type            patch;
        nFaces          20;
        startFace       4333;
    }
    model
    {
        type            wall;
        inGroups        List<word> 
2
(
modelGroup
wall
)
;
        nFaces          356;
        startFace       4353;
    }
)

// ************************************************************************* //
