/*--------------------------------*- C++ -*----------------------------------*\
  =========                 |
  \\      /  F ield         | OpenFOAM: The Open Source CFD Toolbox
   \\    /   O peration     | Website:  https://openfoam.org
    \\  /    A nd           | Version:  7
     \\/     M anipulation  |
\*---------------------------------------------------------------------------*/
FoamFile
{
    version     2.0;
    format      ascii;
    class       featureEdgeMesh;
    location    "constant/triSurface";
    object      model.eMesh;
}
// * * * * * * * * * * * * * * * * * * * * * * * * * * * * * * * * * * * * * //


// points:

142
(
(0.035037 0.066715 0)
(0.034393 0.054261 1)
(0.056258 0.032874 1)
(0.049733 0.032613 0)
(0.034899 0.065996 1)
(0.057766 0.040215 1)
(0.034349 0.05961 1)
(0.041787 0.037388 1)
(0.052064 0.053678 0)
(0.035799 0.068114 1)
(0.056695 0.046085 1)
(0.056307 0.047229 0)
(0.055863 0.048338 1)
(0.055363 0.049403 1)
(0.054809 0.050412 0)
(0.038422 0.040341 0)
(0.035643 0.068167 1)
(0.035487 0.068042 1)
(0.054201 0.051354 1)
(0.052828 0.052998 1)
(0.057772 0.037995 0)
(0.0578 0.039085 0)
(0.036438 0.043446 1)
(0.036048 0.044387 0)
(0.035701 0.045409 0)
(0.035397 0.046514 1)
(0.034319 0.056981 1)
(0.034398 0.060861 0)
(0.034342 0.055626 0)
(0.034586 0.051546 0)
(0.034733 0.05022 0)
(0.034473 0.052897 1)
(0.05522 0.031961 1)
(0.054598 0.031702 0)
(0.053908 0.03158 1)
(0.051514 0.031923 1)
(0.057515 0.04255 1)
(0.057308 0.035066 0)
(0.037865 0.041033 1)
(0.040329 0.038497 1)
(0.034553 0.063174 1)
(0.035333 0.06775 0)
(0.034916 0.048932 1)
(0.052358 0.031704 0)
(0.047881 0.033551 0)
(0.04695 0.034081 1)
(0.046027 0.034634 1)
(0.04512 0.035197 0)
(0.043387 0.036307 1)
(0.044237 0.035758 0)
(0.041787 0.037388 0)
(0.035799 0.068114 0)
(0.057027 0.044916 0)
(0.055863 0.048338 0)
(0.055363 0.049403 0)
(0.054809 0.050412 1)
(0.035037 0.066715 1)
(0.035182 0.067304 1)
(0.035182 0.067304 0)
(0.034772 0.065158 1)
(0.034772 0.065158 0)
(0.034656 0.064213 0)
(0.034656 0.064213 1)
(0.035487 0.068042 0)
(0.054201 0.051354 0)
(0.0573 0.043735 1)
(0.0573 0.043735 0)
(0.057681 0.036955 1)
(0.036438 0.043446 0)
(0.036048 0.044387 1)
(0.03902 0.039692 0)
(0.039655 0.03908 1)
(0.034467 0.062053 1)
(0.034467 0.062053 0)
(0.034393 0.054261 0)
(0.034473 0.052897 0)
(0.035136 0.047692 1)
(0.035136 0.047692 0)
(0.05522 0.031961 0)
(0.056258 0.032874 0)
(0.056675 0.033505 0)
(0.056675 0.033505 1)
(0.055773 0.032355 0)
(0.048811 0.033058 1)
(0.048811 0.033058 0)
(0.051514 0.031923 0)
(0.034899 0.065996 0)
(0.057515 0.04255 0)
(0.057527 0.035975 1)
(0.057766 0.040215 0)
(0.040329 0.038497 0)
(0.04104 0.037935 0)
(0.04104 0.037935 1)
(0.034349 0.05961 0)
(0.052358 0.031704 1)
(0.053158 0.031585 1)
(0.046027 0.034634 0)
(0.04512 0.035197 1)
(0.043387 0.036307 0)
(0.052064 0.053678 1)
(0.057027 0.044916 1)
(0.03902 0.039692 1)
(0.038422 0.040341 1)
(0.05354 0.05222 1)
(0.05354 0.05222 0)
(0.052828 0.052998 0)
(0.0578 0.039085 1)
(0.037348 0.041776 1)
(0.037348 0.041776 0)
(0.036872 0.042578 0)
(0.036872 0.042578 1)
(0.039655 0.03908 0)
(0.035701 0.045409 1)
(0.035397 0.046514 0)
(0.034322 0.058313 0)
(0.034322 0.058313 1)
(0.034398 0.060861 1)
(0.034586 0.051546 1)
(0.034733 0.05022 1)
(0.054598 0.031702 1)
(0.055773 0.032355 1)
(0.053158 0.031585 0)
(0.050636 0.032231 1)
(0.05767 0.041373 0)
(0.05767 0.041373 1)
(0.057024 0.03424 1)
(0.037865 0.041033 0)
(0.034553 0.063174 0)
(0.035333 0.06775 1)
(0.034916 0.048932 0)
(0.047881 0.033551 1)
(0.04695 0.034081 0)
(0.04257 0.036848 1)
(0.044237 0.035758 1)
(0.057308 0.035066 1)
(0.049733 0.032613 1)
(0.057772 0.037995 1)
(0.035643 0.068167 0)
(0.057527 0.035975 0)
(0.056695 0.046085 0)
(0.034319 0.056981 0)
(0.053908 0.03158 0)
)


// edges:

216
(
(51 9)
(10 52)
(53 12)
(54 13)
(14 55)
(0 56)
(57 58)
(59 60)
(61 62)
(16 51)
(63 17)
(64 18)
(19 8)
(65 66)
(67 20)
(22 68)
(69 23)
(70 71)
(27 72)
(72 73)
(1 28)
(74 1)
(75 31)
(76 77)
(78 32)
(2 79)
(80 81)
(82 2)
(3 83)
(83 84)
(85 35)
(4 0)
(86 4)
(87 36)
(37 88)
(5 89)
(21 5)
(39 90)
(91 92)
(6 93)
(27 6)
(30 42)
(77 42)
(43 94)
(95 43)
(46 96)
(97 47)
(98 48)
(50 7)
(122 3)
(17 7)
(7 128)
(69 7)
(7 112)
(12 7)
(7 40)
(9 7)
(7 10)
(7 42)
(57 7)
(7 16)
(7 5)
(7 36)
(120 7)
(7 2)
(7 4)
(7 13)
(55 7)
(103 7)
(7 19)
(7 22)
(134 7)
(7 125)
(7 31)
(118 7)
(135 7)
(7 122)
(7 34)
(95 7)
(7 130)
(100 7)
(7 18)
(7 88)
(136 7)
(102 7)
(25 7)
(1 7)
(7 26)
(116 7)
(7 32)
(7 6)
(62 7)
(110 7)
(7 38)
(115 7)
(7 39)
(119 7)
(81 7)
(7 94)
(35 7)
(97 7)
(7 46)
(124 7)
(45 7)
(7 133)
(48 7)
(50 28)
(78 50)
(50 104)
(105 50)
(50 8)
(50 3)
(27 50)
(109 50)
(50 68)
(70 50)
(50 90)
(50 11)
(64 50)
(54 50)
(50 14)
(50 15)
(86 50)
(50 0)
(137 50)
(138 50)
(50 20)
(75 50)
(50 79)
(85 50)
(50 33)
(50 127)
(50 60)
(139 50)
(50 66)
(87 50)
(50 108)
(50 89)
(113 50)
(50 24)
(50 29)
(61 50)
(131 50)
(50 44)
(50 129)
(126 50)
(23 50)
(140 50)
(50 93)
(50 37)
(80 50)
(141 50)
(50 41)
(50 96)
(58 50)
(21 50)
(30 50)
(84 50)
(50 43)
(47 50)
(50 49)
(9 8)
(8 99)
(52 100)
(11 10)
(12 11)
(13 53)
(13 14)
(101 15)
(15 102)
(16 63)
(18 14)
(103 104)
(105 19)
(20 106)
(106 21)
(107 108)
(109 110)
(23 22)
(71 111)
(24 112)
(25 24)
(113 25)
(26 114)
(114 115)
(116 27)
(28 26)
(29 117)
(118 30)
(31 74)
(31 29)
(32 33)
(33 119)
(120 82)
(34 33)
(121 34)
(36 123)
(123 124)
(125 37)
(38 15)
(126 38)
(111 39)
(40 127)
(73 40)
(41 128)
(17 41)
(42 129)
(35 43)
(44 130)
(45 44)
(131 45)
(47 46)
(132 98)
(49 133)
(48 49)
(92 50)
)

// * * * * * * * * * * * * * * * * * * * * * * * * * * * * * * * * * * * * * //


// ************************************************************************* //
